
---------- Begin Simulation Statistics ----------
simSeconds                                  38.357399                       # Number of seconds simulated (Second)
simTicks                                 38357398549000                       # Number of ticks simulated (Tick)
finalTick                                38357398549000                       # Number of ticks from beginning of simulation (restored from checkpoints and never reset) (Tick)
simFreq                                  1000000000000                       # The number of ticks per simulated second ((Tick/Second))
hostSeconds                                   1455.94                       # Real time elapsed on the host (Second)
hostTickRate                              26345513391                       # The number of ticks simulated per host second (ticks/s) ((Tick/Second))
hostMemory                                     714532                       # Number of bytes of host memory used (Byte)
simInsts                                    428133988                       # Number of instructions simulated (Count)
simOps                                      667344514                       # Number of ops (including micro ops) simulated (Count)
hostInstRate                                   294061                       # Simulator instruction rate (inst/s) ((Count/Second))
hostOpRate                                     458361                       # Simulator op (including micro ops) rate (op/s) ((Count/Second))
system.clk_domain.clock                          1000                       # Clock period in ticks (Tick)
system.clk_domain.voltage_domain.voltage            1                       # Voltage in Volts (Volt)
system.cpu.numCycles                      38357398549                       # Number of cpu cycles simulated (Cycle)
system.cpu.cpi                              89.591960                       # CPI: cycles per instruction (core level) ((Cycle/Count))
system.cpu.ipc                               0.011162                       # IPC: instructions per cycle (core level) ((Count/Cycle))
system.cpu.numWorkItemsStarted                      0                       # Number of work items this cpu started (Count)
system.cpu.numWorkItemsCompleted                    0                       # Number of work items this cpu completed (Count)
system.cpu.commitStats0.numInsts            428134382                       # Number of instructions committed (thread level) (Count)
system.cpu.commitStats0.numOps              667345082                       # Number of ops (including micro ops) committed (thread level) (Count)
system.cpu.commitStats0.numInstsNotNOP              0                       # Number of instructions committed excluding NOPs or prefetches (Count)
system.cpu.commitStats0.numOpsNotNOP                0                       # Number of Ops (including micro ops) Simulated (Count)
system.cpu.commitStats0.cpi                 89.591960                       # CPI: cycles per instruction (thread level) ((Cycle/Count))
system.cpu.commitStats0.ipc                  0.011162                       # IPC: instructions per cycle (thread level) ((Count/Cycle))
system.cpu.commitStats0.numMemRefs                  0                       # Number of memory references committed (Count)
system.cpu.commitStats0.numFpInsts             589002                       # Number of float instructions (Count)
system.cpu.commitStats0.numIntInsts         647034280                       # Number of integer instructions (Count)
system.cpu.commitStats0.numLoadInsts        156749806                       # Number of load instructions (Count)
system.cpu.commitStats0.numStoreInsts        88992112                       # Number of store instructions (Count)
system.cpu.commitStats0.numVecInsts                 0                       # Number of vector instructions (Count)
system.cpu.commitStats0.committedInstType::No_OpClass     19917317      2.98%      2.98% # Class of committed instruction. (Count)
system.cpu.commitStats0.committedInstType::IntAlu    396446210     59.41%     62.39% # Class of committed instruction. (Count)
system.cpu.commitStats0.committedInstType::IntMult      4800023      0.72%     63.11% # Class of committed instruction. (Count)
system.cpu.commitStats0.committedInstType::IntDiv        31330      0.00%     63.12% # Class of committed instruction. (Count)
system.cpu.commitStats0.committedInstType::FloatAdd         5887      0.00%     63.12% # Class of committed instruction. (Count)
system.cpu.commitStats0.committedInstType::FloatCmp            0      0.00%     63.12% # Class of committed instruction. (Count)
system.cpu.commitStats0.committedInstType::FloatCvt         1280      0.00%     63.12% # Class of committed instruction. (Count)
system.cpu.commitStats0.committedInstType::FloatMult            0      0.00%     63.12% # Class of committed instruction. (Count)
system.cpu.commitStats0.committedInstType::FloatMultAcc            0      0.00%     63.12% # Class of committed instruction. (Count)
system.cpu.commitStats0.committedInstType::FloatDiv            0      0.00%     63.12% # Class of committed instruction. (Count)
system.cpu.commitStats0.committedInstType::FloatMisc            0      0.00%     63.12% # Class of committed instruction. (Count)
system.cpu.commitStats0.committedInstType::FloatSqrt            0      0.00%     63.12% # Class of committed instruction. (Count)
system.cpu.commitStats0.committedInstType::SimdAdd         5474      0.00%     63.12% # Class of committed instruction. (Count)
system.cpu.commitStats0.committedInstType::SimdAddAcc            0      0.00%     63.12% # Class of committed instruction. (Count)
system.cpu.commitStats0.committedInstType::SimdAlu       251655      0.04%     63.15% # Class of committed instruction. (Count)
system.cpu.commitStats0.committedInstType::SimdCmp            6      0.00%     63.15% # Class of committed instruction. (Count)
system.cpu.commitStats0.committedInstType::SimdCvt        70912      0.01%     63.17% # Class of committed instruction. (Count)
system.cpu.commitStats0.committedInstType::SimdMisc        71773      0.01%     63.18% # Class of committed instruction. (Count)
system.cpu.commitStats0.committedInstType::SimdMult            0      0.00%     63.18% # Class of committed instruction. (Count)
system.cpu.commitStats0.committedInstType::SimdMultAcc            0      0.00%     63.18% # Class of committed instruction. (Count)
system.cpu.commitStats0.committedInstType::SimdMatMultAcc            0      0.00%     63.18% # Class of committed instruction. (Count)
system.cpu.commitStats0.committedInstType::SimdShift         1297      0.00%     63.18% # Class of committed instruction. (Count)
system.cpu.commitStats0.committedInstType::SimdShiftAcc            0      0.00%     63.18% # Class of committed instruction. (Count)
system.cpu.commitStats0.committedInstType::SimdDiv            0      0.00%     63.18% # Class of committed instruction. (Count)
system.cpu.commitStats0.committedInstType::SimdSqrt            0      0.00%     63.18% # Class of committed instruction. (Count)
system.cpu.commitStats0.committedInstType::SimdFloatAdd            0      0.00%     63.18% # Class of committed instruction. (Count)
system.cpu.commitStats0.committedInstType::SimdFloatAlu            0      0.00%     63.18% # Class of committed instruction. (Count)
system.cpu.commitStats0.committedInstType::SimdFloatCmp            0      0.00%     63.18% # Class of committed instruction. (Count)
system.cpu.commitStats0.committedInstType::SimdFloatCvt            0      0.00%     63.18% # Class of committed instruction. (Count)
system.cpu.commitStats0.committedInstType::SimdFloatDiv            0      0.00%     63.18% # Class of committed instruction. (Count)
system.cpu.commitStats0.committedInstType::SimdFloatMisc            0      0.00%     63.18% # Class of committed instruction. (Count)
system.cpu.commitStats0.committedInstType::SimdFloatMult            0      0.00%     63.18% # Class of committed instruction. (Count)
system.cpu.commitStats0.committedInstType::SimdFloatMultAcc            0      0.00%     63.18% # Class of committed instruction. (Count)
system.cpu.commitStats0.committedInstType::SimdFloatMatMultAcc            0      0.00%     63.18% # Class of committed instruction. (Count)
system.cpu.commitStats0.committedInstType::SimdFloatSqrt            0      0.00%     63.18% # Class of committed instruction. (Count)
system.cpu.commitStats0.committedInstType::SimdReduceAdd            0      0.00%     63.18% # Class of committed instruction. (Count)
system.cpu.commitStats0.committedInstType::SimdReduceAlu            0      0.00%     63.18% # Class of committed instruction. (Count)
system.cpu.commitStats0.committedInstType::SimdReduceCmp            0      0.00%     63.18% # Class of committed instruction. (Count)
system.cpu.commitStats0.committedInstType::SimdFloatReduceAdd            0      0.00%     63.18% # Class of committed instruction. (Count)
system.cpu.commitStats0.committedInstType::SimdFloatReduceCmp            0      0.00%     63.18% # Class of committed instruction. (Count)
system.cpu.commitStats0.committedInstType::SimdAes            0      0.00%     63.18% # Class of committed instruction. (Count)
system.cpu.commitStats0.committedInstType::SimdAesMix            0      0.00%     63.18% # Class of committed instruction. (Count)
system.cpu.commitStats0.committedInstType::SimdSha1Hash            0      0.00%     63.18% # Class of committed instruction. (Count)
system.cpu.commitStats0.committedInstType::SimdSha1Hash2            0      0.00%     63.18% # Class of committed instruction. (Count)
system.cpu.commitStats0.committedInstType::SimdSha256Hash            0      0.00%     63.18% # Class of committed instruction. (Count)
system.cpu.commitStats0.committedInstType::SimdSha256Hash2            0      0.00%     63.18% # Class of committed instruction. (Count)
system.cpu.commitStats0.committedInstType::SimdShaSigma2            0      0.00%     63.18% # Class of committed instruction. (Count)
system.cpu.commitStats0.committedInstType::SimdShaSigma3            0      0.00%     63.18% # Class of committed instruction. (Count)
system.cpu.commitStats0.committedInstType::SimdPredAlu            0      0.00%     63.18% # Class of committed instruction. (Count)
system.cpu.commitStats0.committedInstType::Matrix            0      0.00%     63.18% # Class of committed instruction. (Count)
system.cpu.commitStats0.committedInstType::MatrixMov            0      0.00%     63.18% # Class of committed instruction. (Count)
system.cpu.commitStats0.committedInstType::MatrixOP            0      0.00%     63.18% # Class of committed instruction. (Count)
system.cpu.commitStats0.committedInstType::MemRead    156630667     23.47%     86.65% # Class of committed instruction. (Count)
system.cpu.commitStats0.committedInstType::MemWrite     88934169     13.33%     99.97% # Class of committed instruction. (Count)
system.cpu.commitStats0.committedInstType::FloatMemRead       119139      0.02%     99.99% # Class of committed instruction. (Count)
system.cpu.commitStats0.committedInstType::FloatMemWrite        57943      0.01%    100.00% # Class of committed instruction. (Count)
system.cpu.commitStats0.committedInstType::IprAccess            0      0.00%    100.00% # Class of committed instruction. (Count)
system.cpu.commitStats0.committedInstType::InstPrefetch            0      0.00%    100.00% # Class of committed instruction. (Count)
system.cpu.commitStats0.committedInstType::VectorUnitStrideLoad            0      0.00%    100.00% # Class of committed instruction. (Count)
system.cpu.commitStats0.committedInstType::VectorUnitStrideStore            0      0.00%    100.00% # Class of committed instruction. (Count)
system.cpu.commitStats0.committedInstType::VectorUnitStrideMaskLoad            0      0.00%    100.00% # Class of committed instruction. (Count)
system.cpu.commitStats0.committedInstType::VectorUnitStrideMaskStore            0      0.00%    100.00% # Class of committed instruction. (Count)
system.cpu.commitStats0.committedInstType::VectorStridedLoad            0      0.00%    100.00% # Class of committed instruction. (Count)
system.cpu.commitStats0.committedInstType::VectorStridedStore            0      0.00%    100.00% # Class of committed instruction. (Count)
system.cpu.commitStats0.committedInstType::VectorIndexedLoad            0      0.00%    100.00% # Class of committed instruction. (Count)
system.cpu.commitStats0.committedInstType::VectorIndexedStore            0      0.00%    100.00% # Class of committed instruction. (Count)
system.cpu.commitStats0.committedInstType::VectorUnitStrideFaultOnlyFirstLoad            0      0.00%    100.00% # Class of committed instruction. (Count)
system.cpu.commitStats0.committedInstType::VectorWholeRegisterLoad            0      0.00%    100.00% # Class of committed instruction. (Count)
system.cpu.commitStats0.committedInstType::VectorWholeRegisterStore            0      0.00%    100.00% # Class of committed instruction. (Count)
system.cpu.commitStats0.committedInstType::VectorIntegerArith            0      0.00%    100.00% # Class of committed instruction. (Count)
system.cpu.commitStats0.committedInstType::VectorFloatArith            0      0.00%    100.00% # Class of committed instruction. (Count)
system.cpu.commitStats0.committedInstType::VectorFloatConvert            0      0.00%    100.00% # Class of committed instruction. (Count)
system.cpu.commitStats0.committedInstType::VectorIntegerReduce            0      0.00%    100.00% # Class of committed instruction. (Count)
system.cpu.commitStats0.committedInstType::VectorFloatReduce            0      0.00%    100.00% # Class of committed instruction. (Count)
system.cpu.commitStats0.committedInstType::VectorMisc            0      0.00%    100.00% # Class of committed instruction. (Count)
system.cpu.commitStats0.committedInstType::VectorIntegerExtension            0      0.00%    100.00% # Class of committed instruction. (Count)
system.cpu.commitStats0.committedInstType::VectorConfig            0      0.00%    100.00% # Class of committed instruction. (Count)
system.cpu.commitStats0.committedInstType::total    667345082                       # Class of committed instruction. (Count)
system.cpu.commitStats0.committedControl::IsControl     47095518                       # Class of control type instructions committed (Count)
system.cpu.commitStats0.committedControl::IsDirectControl     27173039                       # Class of control type instructions committed (Count)
system.cpu.commitStats0.committedControl::IsIndirectControl     19922259                       # Class of control type instructions committed (Count)
system.cpu.commitStats0.committedControl::IsCondControl      7522985                       # Class of control type instructions committed (Count)
system.cpu.commitStats0.committedControl::IsUncondControl     39572313                       # Class of control type instructions committed (Count)
system.cpu.commitStats0.committedControl::IsCall     19371876                       # Class of control type instructions committed (Count)
system.cpu.commitStats0.committedControl::IsReturn     19371871                       # Class of control type instructions committed (Count)
system.cpu.exec_context.thread_0.numMatAluAccesses            0                       # Number of matrix alu accesses (Count)
system.cpu.exec_context.thread_0.numCallsReturns     38743747                       # Number of times a function call or return occured (Count)
system.cpu.exec_context.thread_0.numMatInsts            0                       # Number of matrix instructions (Count)
system.cpu.exec_context.thread_0.numIdleCycles     0.001001                       # Number of idle cycles (Cycle)
system.cpu.exec_context.thread_0.numBusyCycles 38357398548.999001                       # Number of busy cycles (Cycle)
system.cpu.exec_context.thread_0.notIdleFraction     1.000000                       # Percentage of non-idle cycles (Ratio)
system.cpu.exec_context.thread_0.idleFraction     0.000000                       # Percentage of idle cycles (Ratio)
system.cpu.executeStats0.numInsts                   0                       # Number of executed instructions (Count)
system.cpu.executeStats0.numNop                     0                       # Number of nop insts executed (Count)
system.cpu.executeStats0.numBranches                0                       # Number of branches executed (Count)
system.cpu.executeStats0.numLoadInsts               0                       # Number of load instructions executed (Count)
system.cpu.executeStats0.numStoreInsts      245741918                       # Number of stores executed (Count)
system.cpu.executeStats0.instRate                   0                       # Inst execution rate ((Count/Cycle))
system.cpu.executeStats0.numFpAluAccesses       589002                       # Number of float alu accesses (Count)
system.cpu.executeStats0.numFpRegReads         874260                       # Number of times the floating registers were read (Count)
system.cpu.executeStats0.numFpRegWrites        463719                       # Number of times the floating registers were written (Count)
system.cpu.executeStats0.numIntAluAccesses    647034280                       # Number of integer alu accesses (Count)
system.cpu.executeStats0.numIntRegReads    1010710351                       # Number of times the integer registers were read (Count)
system.cpu.executeStats0.numIntRegWrites    503536477                       # Number of times the integer registers were written (Count)
system.cpu.executeStats0.numMemRefs         245741918                       # Number of memory refs (Count)
system.cpu.executeStats0.numMiscRegReads    320838525                       # Number of times the Misc registers were read (Count)
system.cpu.executeStats0.numMiscRegWrites          720                       # Number of times the Misc registers were written (Count)
system.cpu.executeStats0.numVecAluAccesses            0                       # Number of vector alu accesses (Count)
system.cpu.executeStats0.numDiscardedOps            0                       # Number of ops (including micro ops) which were discarded before commit (Count)
system.cpu.fetchStats0.numInsts             428134382                       # Number of instructions fetched (thread level) (Count)
system.cpu.fetchStats0.numOps               667345082                       # Number of ops (including micro ops) fetched (thread level) (Count)
system.cpu.fetchStats0.fetchRate             0.011162                       # Number of inst fetches per cycle ((Count/Cycle))
system.cpu.fetchStats0.numBranches           47095518                       # Number of branches fetched (Count)
system.cpu.fetchStats0.branchRate            0.001228                       # Number of branch fetches per cycle (Ratio)
system.cpu.fetchStats0.numFetchSuspends             0                       # Number of times Execute suspended instruction fetching (Count)
system.cpu.interrupts.clk_domain.clock          16000                       # Clock period in ticks (Tick)
system.cpu.mmu.dtb.rdAccesses               156749842                       # TLB accesses on read requests (Count)
system.cpu.mmu.dtb.wrAccesses                88994926                       # TLB accesses on write requests (Count)
system.cpu.mmu.dtb.rdMisses                      1842                       # TLB misses on read requests (Count)
system.cpu.mmu.dtb.wrMisses                       320                       # TLB misses on write requests (Count)
system.cpu.mmu.dtb.walker.power_state.pwrStateResidencyTicks::UNDEFINED 38357398549000                       # Cumulative time (in ticks) in various power states (Tick)
system.cpu.mmu.itb.rdAccesses                       0                       # TLB accesses on read requests (Count)
system.cpu.mmu.itb.wrAccesses               566197149                       # TLB accesses on write requests (Count)
system.cpu.mmu.itb.rdMisses                         0                       # TLB misses on read requests (Count)
system.cpu.mmu.itb.wrMisses                       443                       # TLB misses on write requests (Count)
system.cpu.mmu.itb.walker.power_state.pwrStateResidencyTicks::UNDEFINED 38357398549000                       # Cumulative time (in ticks) in various power states (Tick)
system.cpu.power_state.pwrStateResidencyTicks::ON 38357398549000                       # Cumulative time (in ticks) in various power states (Tick)
system.cpu.thread_0.numInsts                        0                       # Number of Instructions committed (Count)
system.cpu.thread_0.numOps                          0                       # Number of Ops committed (Count)
system.cpu.thread_0.numMemRefs                      0                       # Number of Memory References (Count)
system.cpu.workload.numSyscalls                   224                       # Number of system calls (Count)
system.mem_ctrl.avgPriority_cpu.inst::samples 566197027.00                       # Average QoS priority value for accepted requests (Count)
system.mem_ctrl.avgPriority_cpu.data::samples 113466475.00                       # Average QoS priority value for accepted requests (Count)
system.mem_ctrl.priorityMinLatency       0.000000018750                       # per QoS priority minimum request to response latency (Second)
system.mem_ctrl.priorityMaxLatency       6.535866674500                       # per QoS priority maximum request to response latency (Second)
system.mem_ctrl.numReadWriteTurnArounds          2443                       # Number of turnarounds from READ to WRITE (Count)
system.mem_ctrl.numWriteReadTurnArounds          2443                       # Number of turnarounds from WRITE to READ (Count)
system.mem_ctrl.numStayReadState           1458093186                       # Number of times bus staying in READ state (Count)
system.mem_ctrl.numStayWriteState               36727                       # Number of times bus staying in WRITE state (Count)
system.mem_ctrl.readReqs                    722946637                       # Number of read requests accepted (Count)
system.mem_ctrl.writeReqs                    88994814                       # Number of write requests accepted (Count)
system.mem_ctrl.readBursts                  722946637                       # Number of controller read bursts, including those serviced by the write queue (Count)
system.mem_ctrl.writeBursts                  88994814                       # Number of controller write bursts, including those merged in the write queue (Count)
system.mem_ctrl.servicedByWrQ                43322290                       # Number of controller read bursts serviced by the write queue (Count)
system.mem_ctrl.mergedWrBursts               88955659                       # Number of controller write bursts merged with an existing one (Count)
system.mem_ctrl.neitherReadNorWriteReqs             0                       # Number of requests that are neither read nor write (Count)
system.mem_ctrl.avgRdQLen                        1.00                       # Average read queue length when enqueuing ((Count/Tick))
system.mem_ctrl.avgWrQLen                       26.06                       # Average write queue length when enqueuing ((Count/Tick))
system.mem_ctrl.numRdRetry                          0                       # Number of times read queue was full causing retry (Count)
system.mem_ctrl.numWrRetry                          0                       # Number of times write queue was full causing retry (Count)
system.mem_ctrl.readPktSize::0                 687254                       # Read request sizes (log2) (Count)
system.mem_ctrl.readPktSize::1                  14502                       # Read request sizes (log2) (Count)
system.mem_ctrl.readPktSize::2               46307169                       # Read request sizes (log2) (Count)
system.mem_ctrl.readPktSize::3              675937712                       # Read request sizes (log2) (Count)
system.mem_ctrl.readPktSize::4                      0                       # Read request sizes (log2) (Count)
system.mem_ctrl.readPktSize::5                      0                       # Read request sizes (log2) (Count)
system.mem_ctrl.readPktSize::6                      0                       # Read request sizes (log2) (Count)
system.mem_ctrl.writePktSize::0                343681                       # Write request sizes (log2) (Count)
system.mem_ctrl.writePktSize::1                  3271                       # Write request sizes (log2) (Count)
system.mem_ctrl.writePktSize::2               9691931                       # Write request sizes (log2) (Count)
system.mem_ctrl.writePktSize::3              78955931                       # Write request sizes (log2) (Count)
system.mem_ctrl.writePktSize::4                     0                       # Write request sizes (log2) (Count)
system.mem_ctrl.writePktSize::5                     0                       # Write request sizes (log2) (Count)
system.mem_ctrl.writePktSize::6                     0                       # Write request sizes (log2) (Count)
system.mem_ctrl.rdQLenPdf::0                679624315                       # What read queue length does an incoming req see (Count)
system.mem_ctrl.rdQLenPdf::1                       32                       # What read queue length does an incoming req see (Count)
system.mem_ctrl.rdQLenPdf::2                        0                       # What read queue length does an incoming req see (Count)
system.mem_ctrl.rdQLenPdf::3                        0                       # What read queue length does an incoming req see (Count)
system.mem_ctrl.rdQLenPdf::4                        0                       # What read queue length does an incoming req see (Count)
system.mem_ctrl.rdQLenPdf::5                        0                       # What read queue length does an incoming req see (Count)
system.mem_ctrl.rdQLenPdf::6                        0                       # What read queue length does an incoming req see (Count)
system.mem_ctrl.rdQLenPdf::7                        0                       # What read queue length does an incoming req see (Count)
system.mem_ctrl.rdQLenPdf::8                        0                       # What read queue length does an incoming req see (Count)
system.mem_ctrl.rdQLenPdf::9                        0                       # What read queue length does an incoming req see (Count)
system.mem_ctrl.rdQLenPdf::10                       0                       # What read queue length does an incoming req see (Count)
system.mem_ctrl.rdQLenPdf::11                       0                       # What read queue length does an incoming req see (Count)
system.mem_ctrl.rdQLenPdf::12                       0                       # What read queue length does an incoming req see (Count)
system.mem_ctrl.rdQLenPdf::13                       0                       # What read queue length does an incoming req see (Count)
system.mem_ctrl.rdQLenPdf::14                       0                       # What read queue length does an incoming req see (Count)
system.mem_ctrl.rdQLenPdf::15                       0                       # What read queue length does an incoming req see (Count)
system.mem_ctrl.rdQLenPdf::16                       0                       # What read queue length does an incoming req see (Count)
system.mem_ctrl.rdQLenPdf::17                       0                       # What read queue length does an incoming req see (Count)
system.mem_ctrl.rdQLenPdf::18                       0                       # What read queue length does an incoming req see (Count)
system.mem_ctrl.rdQLenPdf::19                       0                       # What read queue length does an incoming req see (Count)
system.mem_ctrl.rdQLenPdf::20                       0                       # What read queue length does an incoming req see (Count)
system.mem_ctrl.rdQLenPdf::21                       0                       # What read queue length does an incoming req see (Count)
system.mem_ctrl.rdQLenPdf::22                       0                       # What read queue length does an incoming req see (Count)
system.mem_ctrl.rdQLenPdf::23                       0                       # What read queue length does an incoming req see (Count)
system.mem_ctrl.rdQLenPdf::24                       0                       # What read queue length does an incoming req see (Count)
system.mem_ctrl.rdQLenPdf::25                       0                       # What read queue length does an incoming req see (Count)
system.mem_ctrl.rdQLenPdf::26                       0                       # What read queue length does an incoming req see (Count)
system.mem_ctrl.rdQLenPdf::27                       0                       # What read queue length does an incoming req see (Count)
system.mem_ctrl.rdQLenPdf::28                       0                       # What read queue length does an incoming req see (Count)
system.mem_ctrl.rdQLenPdf::29                       0                       # What read queue length does an incoming req see (Count)
system.mem_ctrl.rdQLenPdf::30                       0                       # What read queue length does an incoming req see (Count)
system.mem_ctrl.rdQLenPdf::31                       0                       # What read queue length does an incoming req see (Count)
system.mem_ctrl.wrQLenPdf::0                        1                       # What write queue length does an incoming req see (Count)
system.mem_ctrl.wrQLenPdf::1                        1                       # What write queue length does an incoming req see (Count)
system.mem_ctrl.wrQLenPdf::2                        1                       # What write queue length does an incoming req see (Count)
system.mem_ctrl.wrQLenPdf::3                        1                       # What write queue length does an incoming req see (Count)
system.mem_ctrl.wrQLenPdf::4                        1                       # What write queue length does an incoming req see (Count)
system.mem_ctrl.wrQLenPdf::5                        1                       # What write queue length does an incoming req see (Count)
system.mem_ctrl.wrQLenPdf::6                        1                       # What write queue length does an incoming req see (Count)
system.mem_ctrl.wrQLenPdf::7                        1                       # What write queue length does an incoming req see (Count)
system.mem_ctrl.wrQLenPdf::8                        1                       # What write queue length does an incoming req see (Count)
system.mem_ctrl.wrQLenPdf::9                        1                       # What write queue length does an incoming req see (Count)
system.mem_ctrl.wrQLenPdf::10                       1                       # What write queue length does an incoming req see (Count)
system.mem_ctrl.wrQLenPdf::11                       1                       # What write queue length does an incoming req see (Count)
system.mem_ctrl.wrQLenPdf::12                       1                       # What write queue length does an incoming req see (Count)
system.mem_ctrl.wrQLenPdf::13                       1                       # What write queue length does an incoming req see (Count)
system.mem_ctrl.wrQLenPdf::14                       1                       # What write queue length does an incoming req see (Count)
system.mem_ctrl.wrQLenPdf::15                      22                       # What write queue length does an incoming req see (Count)
system.mem_ctrl.wrQLenPdf::16                      23                       # What write queue length does an incoming req see (Count)
system.mem_ctrl.wrQLenPdf::17                    2438                       # What write queue length does an incoming req see (Count)
system.mem_ctrl.wrQLenPdf::18                    2444                       # What write queue length does an incoming req see (Count)
system.mem_ctrl.wrQLenPdf::19                    2446                       # What write queue length does an incoming req see (Count)
system.mem_ctrl.wrQLenPdf::20                    2444                       # What write queue length does an incoming req see (Count)
system.mem_ctrl.wrQLenPdf::21                    2444                       # What write queue length does an incoming req see (Count)
system.mem_ctrl.wrQLenPdf::22                    2443                       # What write queue length does an incoming req see (Count)
system.mem_ctrl.wrQLenPdf::23                    2445                       # What write queue length does an incoming req see (Count)
system.mem_ctrl.wrQLenPdf::24                    2444                       # What write queue length does an incoming req see (Count)
system.mem_ctrl.wrQLenPdf::25                    2446                       # What write queue length does an incoming req see (Count)
system.mem_ctrl.wrQLenPdf::26                    2443                       # What write queue length does an incoming req see (Count)
system.mem_ctrl.wrQLenPdf::27                    2443                       # What write queue length does an incoming req see (Count)
system.mem_ctrl.wrQLenPdf::28                    2443                       # What write queue length does an incoming req see (Count)
system.mem_ctrl.wrQLenPdf::29                    2443                       # What write queue length does an incoming req see (Count)
system.mem_ctrl.wrQLenPdf::30                    2443                       # What write queue length does an incoming req see (Count)
system.mem_ctrl.wrQLenPdf::31                    2443                       # What write queue length does an incoming req see (Count)
system.mem_ctrl.wrQLenPdf::32                    2443                       # What write queue length does an incoming req see (Count)
system.mem_ctrl.wrQLenPdf::33                       0                       # What write queue length does an incoming req see (Count)
system.mem_ctrl.wrQLenPdf::34                       0                       # What write queue length does an incoming req see (Count)
system.mem_ctrl.wrQLenPdf::35                       0                       # What write queue length does an incoming req see (Count)
system.mem_ctrl.wrQLenPdf::36                       0                       # What write queue length does an incoming req see (Count)
system.mem_ctrl.wrQLenPdf::37                       0                       # What write queue length does an incoming req see (Count)
system.mem_ctrl.wrQLenPdf::38                       0                       # What write queue length does an incoming req see (Count)
system.mem_ctrl.wrQLenPdf::39                       0                       # What write queue length does an incoming req see (Count)
system.mem_ctrl.wrQLenPdf::40                       0                       # What write queue length does an incoming req see (Count)
system.mem_ctrl.wrQLenPdf::41                       0                       # What write queue length does an incoming req see (Count)
system.mem_ctrl.wrQLenPdf::42                       0                       # What write queue length does an incoming req see (Count)
system.mem_ctrl.wrQLenPdf::43                       0                       # What write queue length does an incoming req see (Count)
system.mem_ctrl.wrQLenPdf::44                       0                       # What write queue length does an incoming req see (Count)
system.mem_ctrl.wrQLenPdf::45                       0                       # What write queue length does an incoming req see (Count)
system.mem_ctrl.wrQLenPdf::46                       0                       # What write queue length does an incoming req see (Count)
system.mem_ctrl.wrQLenPdf::47                       0                       # What write queue length does an incoming req see (Count)
system.mem_ctrl.wrQLenPdf::48                       0                       # What write queue length does an incoming req see (Count)
system.mem_ctrl.wrQLenPdf::49                       0                       # What write queue length does an incoming req see (Count)
system.mem_ctrl.wrQLenPdf::50                       0                       # What write queue length does an incoming req see (Count)
system.mem_ctrl.wrQLenPdf::51                       0                       # What write queue length does an incoming req see (Count)
system.mem_ctrl.wrQLenPdf::52                       0                       # What write queue length does an incoming req see (Count)
system.mem_ctrl.wrQLenPdf::53                       0                       # What write queue length does an incoming req see (Count)
system.mem_ctrl.wrQLenPdf::54                       0                       # What write queue length does an incoming req see (Count)
system.mem_ctrl.wrQLenPdf::55                       0                       # What write queue length does an incoming req see (Count)
system.mem_ctrl.wrQLenPdf::56                       0                       # What write queue length does an incoming req see (Count)
system.mem_ctrl.wrQLenPdf::57                       0                       # What write queue length does an incoming req see (Count)
system.mem_ctrl.wrQLenPdf::58                       0                       # What write queue length does an incoming req see (Count)
system.mem_ctrl.wrQLenPdf::59                       0                       # What write queue length does an incoming req see (Count)
system.mem_ctrl.wrQLenPdf::60                       0                       # What write queue length does an incoming req see (Count)
system.mem_ctrl.wrQLenPdf::61                       0                       # What write queue length does an incoming req see (Count)
system.mem_ctrl.wrQLenPdf::62                       0                       # What write queue length does an incoming req see (Count)
system.mem_ctrl.wrQLenPdf::63                       0                       # What write queue length does an incoming req see (Count)
system.mem_ctrl.rdPerTurnAround::samples         2443                       # Reads before turning the bus around for writes (Count)
system.mem_ctrl.rdPerTurnAround::mean    278192.467049                       # Reads before turning the bus around for writes (Count)
system.mem_ctrl.rdPerTurnAround::stdev   1015351.362665                       # Reads before turning the bus around for writes (Count)
system.mem_ctrl.rdPerTurnAround::0-262143         2300     94.15%     94.15% # Reads before turning the bus around for writes (Count)
system.mem_ctrl.rdPerTurnAround::2.09715e+06-2.3593e+06            1      0.04%     94.19% # Reads before turning the bus around for writes (Count)
system.mem_ctrl.rdPerTurnAround::3.14573e+06-3.40787e+06            1      0.04%     94.23% # Reads before turning the bus around for writes (Count)
system.mem_ctrl.rdPerTurnAround::3.67002e+06-3.93216e+06            8      0.33%     94.56% # Reads before turning the bus around for writes (Count)
system.mem_ctrl.rdPerTurnAround::3.93216e+06-4.1943e+06            2      0.08%     94.64% # Reads before turning the bus around for writes (Count)
system.mem_ctrl.rdPerTurnAround::4.1943e+06-4.45645e+06          104      4.26%     98.89% # Reads before turning the bus around for writes (Count)
system.mem_ctrl.rdPerTurnAround::4.45645e+06-4.71859e+06            4      0.16%     99.06% # Reads before turning the bus around for writes (Count)
system.mem_ctrl.rdPerTurnAround::4.71859e+06-4.98074e+06            5      0.20%     99.26% # Reads before turning the bus around for writes (Count)
system.mem_ctrl.rdPerTurnAround::4.98074e+06-5.24288e+06           18      0.74%    100.00% # Reads before turning the bus around for writes (Count)
system.mem_ctrl.rdPerTurnAround::total           2443                       # Reads before turning the bus around for writes (Count)
system.mem_ctrl.wrPerTurnAround::samples         2443                       # Writes before turning the bus around for reads (Count)
system.mem_ctrl.wrPerTurnAround::mean       16.018829                       # Writes before turning the bus around for reads (Count)
system.mem_ctrl.wrPerTurnAround::gmean      16.017589                       # Writes before turning the bus around for reads (Count)
system.mem_ctrl.wrPerTurnAround::stdev       0.209455                       # Writes before turning the bus around for reads (Count)
system.mem_ctrl.wrPerTurnAround::16              2422     99.14%     99.14% # Writes before turning the bus around for reads (Count)
system.mem_ctrl.wrPerTurnAround::18                19      0.78%     99.92% # Writes before turning the bus around for reads (Count)
system.mem_ctrl.wrPerTurnAround::20                 2      0.08%    100.00% # Writes before turning the bus around for reads (Count)
system.mem_ctrl.wrPerTurnAround::total           2443                       # Writes before turning the bus around for reads (Count)
system.mem_ctrl.bytesReadWrQ               2772626560                       # Total number of bytes read from write queue (Byte)
system.mem_ctrl.bytesReadSys               5593446583                       # Total read bytes from the system interface side (Byte)
system.mem_ctrl.bytesWrittenSys             670763479                       # Total written bytes from the system interface side (Byte)
system.mem_ctrl.avgRdBWSys               145824450.94274580                       # Average system read bandwidth in Byte/s ((Byte/Second))
system.mem_ctrl.avgWrBWSys               17487199.45496635                       # Average system write bandwidth in Byte/s ((Byte/Second))
system.mem_ctrl.totGap                   38357398423000                       # Total gap between requests (Tick)
system.mem_ctrl.avgGap                       47241.58                       # Average gap between requests ((Tick/Count))
system.mem_ctrl.requestorReadBytes::cpu.inst   4529576216                       # Per-requestor bytes read from memory (Byte)
system.mem_ctrl.requestorReadBytes::cpu.data    735576432                       # Per-requestor bytes read from memory (Byte)
system.mem_ctrl.requestorWriteBytes::cpu.data       270456                       # Per-requestor bytes write to memory (Byte)
system.mem_ctrl.requestorReadRate::cpu.inst 118088723.097674429417                       # Per-requestor bytes read from memory rate ((Byte/Second))
system.mem_ctrl.requestorReadRate::cpu.data 19176911.360668301582                       # Per-requestor bytes read from memory rate ((Byte/Second))
system.mem_ctrl.requestorWriteRate::cpu.data 7050.947411214646                       # Per-requestor bytes write to memory rate ((Byte/Second))
system.mem_ctrl.requestorReadAccesses::cpu.inst    566197027                       # Per-requestor read serviced memory accesses (Count)
system.mem_ctrl.requestorReadAccesses::cpu.data    156749610                       # Per-requestor read serviced memory accesses (Count)
system.mem_ctrl.requestorWriteAccesses::cpu.data     88994814                       # Per-requestor write serviced memory accesses (Count)
system.mem_ctrl.requestorReadTotalLat::cpu.inst 12255406611250                       # Per-requestor read total memory access latency (Tick)
system.mem_ctrl.requestorReadTotalLat::cpu.data 2790073280000                       # Per-requestor read total memory access latency (Tick)
system.mem_ctrl.requestorWriteTotalLat::cpu.data 993615795992000                       # Per-requestor write total memory access latency (Tick)
system.mem_ctrl.requestorReadAvgLat::cpu.inst     21645.13                       # Per-requestor read average memory access latency ((Tick/Count))
system.mem_ctrl.requestorReadAvgLat::cpu.data     17799.55                       # Per-requestor read average memory access latency ((Tick/Count))
system.mem_ctrl.requestorWriteAvgLat::cpu.data  11164873.00                       # Per-requestor write average memory access latency ((Tick/Count))
system.mem_ctrl.dram.bytesRead::cpu.inst   4529576216                       # Number of bytes read from this memory (Byte)
system.mem_ctrl.dram.bytesRead::cpu.data   1063870367                       # Number of bytes read from this memory (Byte)
system.mem_ctrl.dram.bytesRead::total      5593446583                       # Number of bytes read from this memory (Byte)
system.mem_ctrl.dram.bytesInstRead::cpu.inst   4529576216                       # Number of instructions bytes read from this memory (Byte)
system.mem_ctrl.dram.bytesInstRead::total   4529576216                       # Number of instructions bytes read from this memory (Byte)
system.mem_ctrl.dram.bytesWritten::cpu.data    670763479                       # Number of bytes written to this memory (Byte)
system.mem_ctrl.dram.bytesWritten::total    670763479                       # Number of bytes written to this memory (Byte)
system.mem_ctrl.dram.numReads::cpu.inst     566197027                       # Number of read requests responded to by this memory (Count)
system.mem_ctrl.dram.numReads::cpu.data     156749610                       # Number of read requests responded to by this memory (Count)
system.mem_ctrl.dram.numReads::total        722946637                       # Number of read requests responded to by this memory (Count)
system.mem_ctrl.dram.numWrites::cpu.data     88994814                       # Number of write requests responded to by this memory (Count)
system.mem_ctrl.dram.numWrites::total        88994814                       # Number of write requests responded to by this memory (Count)
system.mem_ctrl.dram.bwRead::cpu.inst       118088723                       # Total read bandwidth from this memory ((Byte/Second))
system.mem_ctrl.dram.bwRead::cpu.data        27735728                       # Total read bandwidth from this memory ((Byte/Second))
system.mem_ctrl.dram.bwRead::total          145824451                       # Total read bandwidth from this memory ((Byte/Second))
system.mem_ctrl.dram.bwInstRead::cpu.inst    118088723                       # Instruction read bandwidth from this memory ((Byte/Second))
system.mem_ctrl.dram.bwInstRead::total      118088723                       # Instruction read bandwidth from this memory ((Byte/Second))
system.mem_ctrl.dram.bwWrite::cpu.data       17487199                       # Write bandwidth from this memory ((Byte/Second))
system.mem_ctrl.dram.bwWrite::total          17487199                       # Write bandwidth from this memory ((Byte/Second))
system.mem_ctrl.dram.bwTotal::cpu.inst      118088723                       # Total bandwidth to/from this memory ((Byte/Second))
system.mem_ctrl.dram.bwTotal::cpu.data       45222927                       # Total bandwidth to/from this memory ((Byte/Second))
system.mem_ctrl.dram.bwTotal::total         163311650                       # Total bandwidth to/from this memory ((Byte/Second))
system.mem_ctrl.dram.readBursts             679624347                       # Number of DRAM read bursts (Count)
system.mem_ctrl.dram.writeBursts                39134                       # Number of DRAM write bursts (Count)
system.mem_ctrl.dram.perBankRdBursts::0      89381740                       # Per bank write bursts (Count)
system.mem_ctrl.dram.perBankRdBursts::1     523508269                       # Per bank write bursts (Count)
system.mem_ctrl.dram.perBankRdBursts::2      15950119                       # Per bank write bursts (Count)
system.mem_ctrl.dram.perBankRdBursts::3       1089969                       # Per bank write bursts (Count)
system.mem_ctrl.dram.perBankRdBursts::4       8495124                       # Per bank write bursts (Count)
system.mem_ctrl.dram.perBankRdBursts::5       1690217                       # Per bank write bursts (Count)
system.mem_ctrl.dram.perBankRdBursts::6        855873                       # Per bank write bursts (Count)
system.mem_ctrl.dram.perBankRdBursts::7       1214080                       # Per bank write bursts (Count)
system.mem_ctrl.dram.perBankRdBursts::8       1052806                       # Per bank write bursts (Count)
system.mem_ctrl.dram.perBankRdBursts::9       1339621                       # Per bank write bursts (Count)
system.mem_ctrl.dram.perBankRdBursts::10      2026628                       # Per bank write bursts (Count)
system.mem_ctrl.dram.perBankRdBursts::11       800399                       # Per bank write bursts (Count)
system.mem_ctrl.dram.perBankRdBursts::12      5366123                       # Per bank write bursts (Count)
system.mem_ctrl.dram.perBankRdBursts::13     10656996                       # Per bank write bursts (Count)
system.mem_ctrl.dram.perBankRdBursts::14      5325118                       # Per bank write bursts (Count)
system.mem_ctrl.dram.perBankRdBursts::15     10871265                       # Per bank write bursts (Count)
system.mem_ctrl.dram.perBankWrBursts::0         13505                       # Per bank write bursts (Count)
system.mem_ctrl.dram.perBankWrBursts::1          3666                       # Per bank write bursts (Count)
system.mem_ctrl.dram.perBankWrBursts::2          1448                       # Per bank write bursts (Count)
system.mem_ctrl.dram.perBankWrBursts::3          1198                       # Per bank write bursts (Count)
system.mem_ctrl.dram.perBankWrBursts::4          1337                       # Per bank write bursts (Count)
system.mem_ctrl.dram.perBankWrBursts::5           822                       # Per bank write bursts (Count)
system.mem_ctrl.dram.perBankWrBursts::6           585                       # Per bank write bursts (Count)
system.mem_ctrl.dram.perBankWrBursts::7          1318                       # Per bank write bursts (Count)
system.mem_ctrl.dram.perBankWrBursts::8          1106                       # Per bank write bursts (Count)
system.mem_ctrl.dram.perBankWrBursts::9           945                       # Per bank write bursts (Count)
system.mem_ctrl.dram.perBankWrBursts::10         1275                       # Per bank write bursts (Count)
system.mem_ctrl.dram.perBankWrBursts::11          857                       # Per bank write bursts (Count)
system.mem_ctrl.dram.perBankWrBursts::12         1338                       # Per bank write bursts (Count)
system.mem_ctrl.dram.perBankWrBursts::13         7504                       # Per bank write bursts (Count)
system.mem_ctrl.dram.perBankWrBursts::14          869                       # Per bank write bursts (Count)
system.mem_ctrl.dram.perBankWrBursts::15         1361                       # Per bank write bursts (Count)
system.mem_ctrl.dram.totQLat             2302523385000                       # Total ticks spent queuing (Tick)
system.mem_ctrl.dram.totBusLat           3398121735000                       # Total ticks spent in databus transfers (Tick)
system.mem_ctrl.dram.totMemAccLat        15045479891250                       # Total ticks spent from burst creation until serviced by the DRAM (Tick)
system.mem_ctrl.dram.avgQLat                  3387.94                       # Average queueing delay per DRAM burst ((Tick/Count))
system.mem_ctrl.dram.avgBusLat                5000.00                       # Average bus latency per DRAM burst ((Tick/Count))
system.mem_ctrl.dram.avgMemAccLat            22137.94                       # Average memory access latency per DRAM burst ((Tick/Count))
system.mem_ctrl.dram.readRowHits            609120016                       # Number of row buffer hits during reads (Count)
system.mem_ctrl.dram.writeRowHits               34861                       # Number of row buffer hits during writes (Count)
system.mem_ctrl.dram.readRowHitRate             89.63                       # Row buffer hit rate for reads (Ratio)
system.mem_ctrl.dram.writeRowHitRate            89.08                       # Row buffer hit rate for writes (Ratio)
system.mem_ctrl.dram.bytesPerActivate::samples     70508599                       # Bytes accessed per row activation (Byte)
system.mem_ctrl.dram.bytesPerActivate::mean   616.924191                       # Bytes accessed per row activation (Byte)
system.mem_ctrl.dram.bytesPerActivate::gmean   356.816735                       # Bytes accessed per row activation (Byte)
system.mem_ctrl.dram.bytesPerActivate::stdev   452.155062                       # Bytes accessed per row activation (Byte)
system.mem_ctrl.dram.bytesPerActivate::0-127     20048639     28.43%     28.43% # Bytes accessed per row activation (Byte)
system.mem_ctrl.dram.bytesPerActivate::128-255      9240496     13.11%     41.54% # Bytes accessed per row activation (Byte)
system.mem_ctrl.dram.bytesPerActivate::256-383      1293821      1.83%     43.37% # Bytes accessed per row activation (Byte)
system.mem_ctrl.dram.bytesPerActivate::384-511       404356      0.57%     43.95% # Bytes accessed per row activation (Byte)
system.mem_ctrl.dram.bytesPerActivate::512-639       394467      0.56%     44.51% # Bytes accessed per row activation (Byte)
system.mem_ctrl.dram.bytesPerActivate::640-767       436083      0.62%     45.13% # Bytes accessed per row activation (Byte)
system.mem_ctrl.dram.bytesPerActivate::768-895       316507      0.45%     45.58% # Bytes accessed per row activation (Byte)
system.mem_ctrl.dram.bytesPerActivate::896-1023       317547      0.45%     46.03% # Bytes accessed per row activation (Byte)
system.mem_ctrl.dram.bytesPerActivate::1024-1151     38056683     53.97%    100.00% # Bytes accessed per row activation (Byte)
system.mem_ctrl.dram.bytesPerActivate::total     70508599                       # Bytes accessed per row activation (Byte)
system.mem_ctrl.dram.bytesRead            43495958208                       # Total bytes read (Byte)
system.mem_ctrl.dram.bytesWritten             2504576                       # Total bytes written (Byte)
system.mem_ctrl.dram.avgRdBW              1133.965281                       # Average DRAM read bandwidth in MiBytes/s ((Byte/Second))
system.mem_ctrl.dram.avgWrBW                 0.065296                       # Average DRAM write bandwidth in MiBytes/s ((Byte/Second))
system.mem_ctrl.dram.peakBW                  12800.00                       # Theoretical peak bandwidth in MiByte/s ((Byte/Second))
system.mem_ctrl.dram.busUtil                     8.86                       # Data bus utilization in percentage (Ratio)
system.mem_ctrl.dram.busUtilRead                 8.86                       # Data bus utilization in percentage for reads (Ratio)
system.mem_ctrl.dram.busUtilWrite                0.00                       # Data bus utilization in percentage for writes (Ratio)
system.mem_ctrl.dram.pageHitRate                89.63                       # Row buffer hit rate, read and write combined (Ratio)
system.mem_ctrl.dram.power_state.pwrStateResidencyTicks::UNDEFINED 38357398549000                       # Cumulative time (in ticks) in various power states (Tick)
system.mem_ctrl.dram.rank0.actEnergy     394575563760                       # Energy for activate commands per rank (pJ) (Joule)
system.mem_ctrl.dram.rank0.preEnergy     209721874395                       # Energy for precharge commands per rank (pJ) (Joule)
system.mem_ctrl.dram.rank0.readEnergy    4585203691740                       # Energy for read commands per rank (pJ) (Joule)
system.mem_ctrl.dram.rank0.writeEnergy      124648380                       # Energy for write commands per rank (pJ) (Joule)
system.mem_ctrl.dram.rank0.refreshEnergy 3027900417360.000488                       # Energy for refresh commands per rank (pJ) (Joule)
system.mem_ctrl.dram.rank0.actBackEnergy 17323081053900                       # Energy for active background per rank (pJ) (Joule)
system.mem_ctrl.dram.rank0.preBackEnergy 141383313600                       # Energy for precharge background per rank (pJ) (Joule)
system.mem_ctrl.dram.rank0.actPowerDownEnergy            0                       # Energy for active power-down per rank (pJ) (Joule)
system.mem_ctrl.dram.rank0.prePowerDownEnergy            0                       # Energy for precharge power-down per rank (pJ) (Joule)
system.mem_ctrl.dram.rank0.selfRefreshEnergy            0                       # Energy for self refresh per rank (pJ) (Joule)
system.mem_ctrl.dram.rank0.totalEnergy   25681990563135                       # Total energy per rank (pJ) (Joule)
system.mem_ctrl.dram.rank0.averagePower    669.544639                       # Core power per rank (mW) (Watt)
system.mem_ctrl.dram.rank0.totalIdleTime            0                       # Total Idle time Per DRAM Rank (Tick)
system.mem_ctrl.dram.rank0.pwrStateTime::IDLE 217178818250                       # Time in different power states (Tick)
system.mem_ctrl.dram.rank0.pwrStateTime::REF 1280837740000                       # Time in different power states (Tick)
system.mem_ctrl.dram.rank0.pwrStateTime::SREF            0                       # Time in different power states (Tick)
system.mem_ctrl.dram.rank0.pwrStateTime::PRE_PDN            0                       # Time in different power states (Tick)
system.mem_ctrl.dram.rank0.pwrStateTime::ACT 36859381990750                       # Time in different power states (Tick)
system.mem_ctrl.dram.rank0.pwrStateTime::ACT_PDN            0                       # Time in different power states (Tick)
system.mem_ctrl.dram.rank1.actEnergy     108855868800                       # Energy for activate commands per rank (pJ) (Joule)
system.mem_ctrl.dram.rank1.preEnergy      57858258810                       # Energy for precharge commands per rank (pJ) (Joule)
system.mem_ctrl.dram.rank1.readEnergy    267314145840                       # Energy for read commands per rank (pJ) (Joule)
system.mem_ctrl.dram.rank1.writeEnergy       79631100                       # Energy for write commands per rank (pJ) (Joule)
system.mem_ctrl.dram.rank1.refreshEnergy 3027900417360.000488                       # Energy for refresh commands per rank (pJ) (Joule)
system.mem_ctrl.dram.rank1.actBackEnergy 13662524169930                       # Energy for active background per rank (pJ) (Joule)
system.mem_ctrl.dram.rank1.preBackEnergy 3223957531680                       # Energy for precharge background per rank (pJ) (Joule)
system.mem_ctrl.dram.rank1.actPowerDownEnergy            0                       # Energy for active power-down per rank (pJ) (Joule)
system.mem_ctrl.dram.rank1.prePowerDownEnergy            0                       # Energy for precharge power-down per rank (pJ) (Joule)
system.mem_ctrl.dram.rank1.selfRefreshEnergy            0                       # Energy for self refresh per rank (pJ) (Joule)
system.mem_ctrl.dram.rank1.totalEnergy   20348490023520                       # Total energy per rank (pJ) (Joule)
system.mem_ctrl.dram.rank1.averagePower    530.497135                       # Core power per rank (mW) (Watt)
system.mem_ctrl.dram.rank1.totalIdleTime            0                       # Total Idle time Per DRAM Rank (Tick)
system.mem_ctrl.dram.rank1.pwrStateTime::IDLE 8250108137750                       # Time in different power states (Tick)
system.mem_ctrl.dram.rank1.pwrStateTime::REF 1280837740000                       # Time in different power states (Tick)
system.mem_ctrl.dram.rank1.pwrStateTime::SREF            0                       # Time in different power states (Tick)
system.mem_ctrl.dram.rank1.pwrStateTime::PRE_PDN            0                       # Time in different power states (Tick)
system.mem_ctrl.dram.rank1.pwrStateTime::ACT 28826452671250                       # Time in different power states (Tick)
system.mem_ctrl.dram.rank1.pwrStateTime::ACT_PDN            0                       # Time in different power states (Tick)
system.mem_ctrl.power_state.pwrStateResidencyTicks::UNDEFINED 38357398549000                       # Cumulative time (in ticks) in various power states (Tick)
system.membus.transDist::ReadReq            722946550                       # Transaction distribution (Count)
system.membus.transDist::ReadResp           722946550                       # Transaction distribution (Count)
system.membus.transDist::WriteReq            88994727                       # Transaction distribution (Count)
system.membus.transDist::WriteResp           88994727                       # Transaction distribution (Count)
system.membus.transDist::LockedRMWReadReq           87                       # Transaction distribution (Count)
system.membus.transDist::LockedRMWReadResp           87                       # Transaction distribution (Count)
system.membus.transDist::LockedRMWWriteReq           87                       # Transaction distribution (Count)
system.membus.transDist::LockedRMWWriteResp           87                       # Transaction distribution (Count)
system.membus.pktCount_system.cpu.icache_port::system.mem_ctrl.port   1132394054                       # Packet count per connected requestor and responder (Count)
system.membus.pktCount_system.cpu.icache_port::total   1132394054                       # Packet count per connected requestor and responder (Count)
system.membus.pktCount_system.cpu.dcache_port::system.mem_ctrl.port    491488848                       # Packet count per connected requestor and responder (Count)
system.membus.pktCount_system.cpu.dcache_port::total    491488848                       # Packet count per connected requestor and responder (Count)
system.membus.pktCount::total              1623882902                       # Packet count per connected requestor and responder (Count)
system.membus.pktSize_system.cpu.icache_port::system.mem_ctrl.port   4529576216                       # Cumulative packet size per connected requestor and responder (Byte)
system.membus.pktSize_system.cpu.icache_port::total   4529576216                       # Cumulative packet size per connected requestor and responder (Byte)
system.membus.pktSize_system.cpu.dcache_port::system.mem_ctrl.port   1734633846                       # Cumulative packet size per connected requestor and responder (Byte)
system.membus.pktSize_system.cpu.dcache_port::total   1734633846                       # Cumulative packet size per connected requestor and responder (Byte)
system.membus.pktSize::total               6264210062                       # Cumulative packet size per connected requestor and responder (Byte)
system.membus.snoops                                0                       # Total snoops (Count)
system.membus.snoopTraffic                          0                       # Total snoop traffic (Byte)
system.membus.snoopFanout::samples          811941451                       # Request fanout histogram (Count)
system.membus.snoopFanout::mean                     0                       # Request fanout histogram (Count)
system.membus.snoopFanout::stdev                    0                       # Request fanout histogram (Count)
system.membus.snoopFanout::underflows               0      0.00%      0.00% # Request fanout histogram (Count)
system.membus.snoopFanout::0                811941451    100.00%    100.00% # Request fanout histogram (Count)
system.membus.snoopFanout::1                        0      0.00%    100.00% # Request fanout histogram (Count)
system.membus.snoopFanout::overflows                0      0.00%    100.00% # Request fanout histogram (Count)
system.membus.snoopFanout::min_value                0                       # Request fanout histogram (Count)
system.membus.snoopFanout::max_value                0                       # Request fanout histogram (Count)
system.membus.snoopFanout::total            811941451                       # Request fanout histogram (Count)
system.membus.power_state.pwrStateResidencyTicks::UNDEFINED 38357398549000                       # Cumulative time (in ticks) in various power states (Tick)
system.membus.reqLayer2.occupancy        900936265000                       # Layer occupancy (ticks) (Tick)
system.membus.reqLayer2.utilization               0.0                       # Layer utilization (Ratio)
system.membus.respLayer0.occupancy       1283862297750                       # Layer occupancy (ticks) (Tick)
system.membus.respLayer0.utilization              0.0                       # Layer utilization (Ratio)
system.membus.respLayer1.occupancy       438932351000                       # Layer occupancy (ticks) (Tick)
system.membus.respLayer1.utilization              0.0                       # Layer utilization (Ratio)
system.membus.snoop_filter.totRequests              0                       # Total number of requests made to the snoop filter. (Count)
system.membus.snoop_filter.hitSingleRequests            0                       # Number of requests hitting in the snoop filter with a single holder of the requested data. (Count)
system.membus.snoop_filter.hitMultiRequests            0                       # Number of requests hitting in the snoop filter with multiple (>1) holders of the requested data. (Count)
system.membus.snoop_filter.totSnoops                0                       # Total number of snoops made to the snoop filter. (Count)
system.membus.snoop_filter.hitSingleSnoops            0                       # Number of snoops hitting in the snoop filter with a single holder of the requested data. (Count)
system.membus.snoop_filter.hitMultiSnoops            0                       # Number of snoops hitting in the snoop filter with multiple (>1) holders of the requested data. (Count)
system.workload.inst.arm                            0                       # number of arm instructions executed (Count)
system.workload.inst.quiesce                        0                       # number of quiesce instructions executed (Count)

---------- End Simulation Statistics   ----------
