
---------- Begin Simulation Statistics ----------
simSeconds                                  59.261119                       # Number of seconds simulated (Second)
simTicks                                 59261119215000                       # Number of ticks simulated (Tick)
finalTick                                59261119215000                       # Number of ticks from beginning of simulation (restored from checkpoints and never reset) (Tick)
simFreq                                  1000000000000                       # The number of ticks per simulated second ((Tick/Second))
hostSeconds                                   2369.48                       # Real time elapsed on the host (Second)
hostTickRate                              25010219411                       # The number of ticks simulated per host second (ticks/s) ((Tick/Second))
hostMemory                                     715576                       # Number of bytes of host memory used (Byte)
simInsts                                    581993312                       # Number of instructions simulated (Count)
simOps                                      897022962                       # Number of ops (including micro ops) simulated (Count)
hostInstRate                                   245621                       # Simulator instruction rate (inst/s) ((Count/Second))
hostOpRate                                     378574                       # Simulator op (including micro ops) rate (op/s) ((Count/Second))
system.clk_domain.clock                          1000                       # Clock period in ticks (Tick)
system.clk_domain.voltage_domain.voltage            1                       # Voltage in Volts (Volt)
system.cpu.numCycles                      59261119215                       # Number of cpu cycles simulated (Cycle)
system.cpu.cpi                             101.824330                       # CPI: cycles per instruction (core level) ((Cycle/Count))
system.cpu.ipc                               0.009821                       # IPC: instructions per cycle (core level) ((Count/Cycle))
system.cpu.numWorkItemsStarted                      0                       # Number of work items this cpu started (Count)
system.cpu.numWorkItemsCompleted                    0                       # Number of work items this cpu completed (Count)
system.cpu.commitStats0.numInsts            581993707                       # Number of instructions committed (thread level) (Count)
system.cpu.commitStats0.numOps              897023529                       # Number of ops (including micro ops) committed (thread level) (Count)
system.cpu.commitStats0.numInstsNotNOP              0                       # Number of instructions committed excluding NOPs or prefetches (Count)
system.cpu.commitStats0.numOpsNotNOP                0                       # Number of Ops (including micro ops) Simulated (Count)
system.cpu.commitStats0.cpi                101.824330                       # CPI: cycles per instruction (thread level) ((Cycle/Count))
system.cpu.commitStats0.ipc                  0.009821                       # IPC: instructions per cycle (thread level) ((Count/Cycle))
system.cpu.commitStats0.numMemRefs                  0                       # Number of memory references committed (Count)
system.cpu.commitStats0.numFpInsts             589519                       # Number of float instructions (Count)
system.cpu.commitStats0.numIntInsts         870643065                       # Number of integer instructions (Count)
system.cpu.commitStats0.numLoadInsts        212374072                       # Number of load instructions (Count)
system.cpu.commitStats0.numStoreInsts       120130568                       # Number of store instructions (Count)
system.cpu.commitStats0.numVecInsts                 0                       # Number of vector instructions (Count)
system.cpu.commitStats0.committedInstType::No_OpClass     25986614      2.90%      2.90% # Class of committed instruction. (Count)
system.cpu.commitStats0.committedInstType::IntAlu    533292137     59.45%     62.35% # Class of committed instruction. (Count)
system.cpu.commitStats0.committedInstType::IntMult      4800025      0.54%     62.88% # Class of committed instruction. (Count)
system.cpu.commitStats0.committedInstType::IntDiv        31420      0.00%     62.89% # Class of committed instruction. (Count)
system.cpu.commitStats0.committedInstType::FloatAdd         5878      0.00%     62.89% # Class of committed instruction. (Count)
system.cpu.commitStats0.committedInstType::FloatCmp            0      0.00%     62.89% # Class of committed instruction. (Count)
system.cpu.commitStats0.committedInstType::FloatCvt         1280      0.00%     62.89% # Class of committed instruction. (Count)
system.cpu.commitStats0.committedInstType::FloatMult            0      0.00%     62.89% # Class of committed instruction. (Count)
system.cpu.commitStats0.committedInstType::FloatMultAcc            0      0.00%     62.89% # Class of committed instruction. (Count)
system.cpu.commitStats0.committedInstType::FloatDiv            0      0.00%     62.89% # Class of committed instruction. (Count)
system.cpu.commitStats0.committedInstType::FloatMisc            0      0.00%     62.89% # Class of committed instruction. (Count)
system.cpu.commitStats0.committedInstType::FloatSqrt            0      0.00%     62.89% # Class of committed instruction. (Count)
system.cpu.commitStats0.committedInstType::SimdAdd         5544      0.00%     62.89% # Class of committed instruction. (Count)
system.cpu.commitStats0.committedInstType::SimdAddAcc            0      0.00%     62.89% # Class of committed instruction. (Count)
system.cpu.commitStats0.committedInstType::SimdAlu       251740      0.03%     62.92% # Class of committed instruction. (Count)
system.cpu.commitStats0.committedInstType::SimdCmp            6      0.00%     62.92% # Class of committed instruction. (Count)
system.cpu.commitStats0.committedInstType::SimdCvt        71056      0.01%     62.92% # Class of committed instruction. (Count)
system.cpu.commitStats0.committedInstType::SimdMisc        71856      0.01%     62.93% # Class of committed instruction. (Count)
system.cpu.commitStats0.committedInstType::SimdMult            0      0.00%     62.93% # Class of committed instruction. (Count)
system.cpu.commitStats0.committedInstType::SimdMultAcc            0      0.00%     62.93% # Class of committed instruction. (Count)
system.cpu.commitStats0.committedInstType::SimdMatMultAcc            0      0.00%     62.93% # Class of committed instruction. (Count)
system.cpu.commitStats0.committedInstType::SimdShift         1329      0.00%     62.93% # Class of committed instruction. (Count)
system.cpu.commitStats0.committedInstType::SimdShiftAcc            0      0.00%     62.93% # Class of committed instruction. (Count)
system.cpu.commitStats0.committedInstType::SimdDiv            0      0.00%     62.93% # Class of committed instruction. (Count)
system.cpu.commitStats0.committedInstType::SimdSqrt            0      0.00%     62.93% # Class of committed instruction. (Count)
system.cpu.commitStats0.committedInstType::SimdFloatAdd            0      0.00%     62.93% # Class of committed instruction. (Count)
system.cpu.commitStats0.committedInstType::SimdFloatAlu            0      0.00%     62.93% # Class of committed instruction. (Count)
system.cpu.commitStats0.committedInstType::SimdFloatCmp            0      0.00%     62.93% # Class of committed instruction. (Count)
system.cpu.commitStats0.committedInstType::SimdFloatCvt            3      0.00%     62.93% # Class of committed instruction. (Count)
system.cpu.commitStats0.committedInstType::SimdFloatDiv            0      0.00%     62.93% # Class of committed instruction. (Count)
system.cpu.commitStats0.committedInstType::SimdFloatMisc            0      0.00%     62.93% # Class of committed instruction. (Count)
system.cpu.commitStats0.committedInstType::SimdFloatMult            0      0.00%     62.93% # Class of committed instruction. (Count)
system.cpu.commitStats0.committedInstType::SimdFloatMultAcc            0      0.00%     62.93% # Class of committed instruction. (Count)
system.cpu.commitStats0.committedInstType::SimdFloatMatMultAcc            0      0.00%     62.93% # Class of committed instruction. (Count)
system.cpu.commitStats0.committedInstType::SimdFloatSqrt            1      0.00%     62.93% # Class of committed instruction. (Count)
system.cpu.commitStats0.committedInstType::SimdReduceAdd            0      0.00%     62.93% # Class of committed instruction. (Count)
system.cpu.commitStats0.committedInstType::SimdReduceAlu            0      0.00%     62.93% # Class of committed instruction. (Count)
system.cpu.commitStats0.committedInstType::SimdReduceCmp            0      0.00%     62.93% # Class of committed instruction. (Count)
system.cpu.commitStats0.committedInstType::SimdFloatReduceAdd            0      0.00%     62.93% # Class of committed instruction. (Count)
system.cpu.commitStats0.committedInstType::SimdFloatReduceCmp            0      0.00%     62.93% # Class of committed instruction. (Count)
system.cpu.commitStats0.committedInstType::SimdAes            0      0.00%     62.93% # Class of committed instruction. (Count)
system.cpu.commitStats0.committedInstType::SimdAesMix            0      0.00%     62.93% # Class of committed instruction. (Count)
system.cpu.commitStats0.committedInstType::SimdSha1Hash            0      0.00%     62.93% # Class of committed instruction. (Count)
system.cpu.commitStats0.committedInstType::SimdSha1Hash2            0      0.00%     62.93% # Class of committed instruction. (Count)
system.cpu.commitStats0.committedInstType::SimdSha256Hash            0      0.00%     62.93% # Class of committed instruction. (Count)
system.cpu.commitStats0.committedInstType::SimdSha256Hash2            0      0.00%     62.93% # Class of committed instruction. (Count)
system.cpu.commitStats0.committedInstType::SimdShaSigma2            0      0.00%     62.93% # Class of committed instruction. (Count)
system.cpu.commitStats0.committedInstType::SimdShaSigma3            0      0.00%     62.93% # Class of committed instruction. (Count)
system.cpu.commitStats0.committedInstType::SimdPredAlu            0      0.00%     62.93% # Class of committed instruction. (Count)
system.cpu.commitStats0.committedInstType::Matrix            0      0.00%     62.93% # Class of committed instruction. (Count)
system.cpu.commitStats0.committedInstType::MatrixMov            0      0.00%     62.93% # Class of committed instruction. (Count)
system.cpu.commitStats0.committedInstType::MatrixOP            0      0.00%     62.93% # Class of committed instruction. (Count)
system.cpu.commitStats0.committedInstType::MemRead    212254814     23.66%     86.59% # Class of committed instruction. (Count)
system.cpu.commitStats0.committedInstType::MemWrite    120072623     13.39%     99.98% # Class of committed instruction. (Count)
system.cpu.commitStats0.committedInstType::FloatMemRead       119258      0.01%     99.99% # Class of committed instruction. (Count)
system.cpu.commitStats0.committedInstType::FloatMemWrite        57945      0.01%    100.00% # Class of committed instruction. (Count)
system.cpu.commitStats0.committedInstType::IprAccess            0      0.00%    100.00% # Class of committed instruction. (Count)
system.cpu.commitStats0.committedInstType::InstPrefetch            0      0.00%    100.00% # Class of committed instruction. (Count)
system.cpu.commitStats0.committedInstType::VectorUnitStrideLoad            0      0.00%    100.00% # Class of committed instruction. (Count)
system.cpu.commitStats0.committedInstType::VectorUnitStrideStore            0      0.00%    100.00% # Class of committed instruction. (Count)
system.cpu.commitStats0.committedInstType::VectorUnitStrideMaskLoad            0      0.00%    100.00% # Class of committed instruction. (Count)
system.cpu.commitStats0.committedInstType::VectorUnitStrideMaskStore            0      0.00%    100.00% # Class of committed instruction. (Count)
system.cpu.commitStats0.committedInstType::VectorStridedLoad            0      0.00%    100.00% # Class of committed instruction. (Count)
system.cpu.commitStats0.committedInstType::VectorStridedStore            0      0.00%    100.00% # Class of committed instruction. (Count)
system.cpu.commitStats0.committedInstType::VectorIndexedLoad            0      0.00%    100.00% # Class of committed instruction. (Count)
system.cpu.commitStats0.committedInstType::VectorIndexedStore            0      0.00%    100.00% # Class of committed instruction. (Count)
system.cpu.commitStats0.committedInstType::VectorUnitStrideFaultOnlyFirstLoad            0      0.00%    100.00% # Class of committed instruction. (Count)
system.cpu.commitStats0.committedInstType::VectorWholeRegisterLoad            0      0.00%    100.00% # Class of committed instruction. (Count)
system.cpu.commitStats0.committedInstType::VectorWholeRegisterStore            0      0.00%    100.00% # Class of committed instruction. (Count)
system.cpu.commitStats0.committedInstType::VectorIntegerArith            0      0.00%    100.00% # Class of committed instruction. (Count)
system.cpu.commitStats0.committedInstType::VectorFloatArith            0      0.00%    100.00% # Class of committed instruction. (Count)
system.cpu.commitStats0.committedInstType::VectorFloatConvert            0      0.00%    100.00% # Class of committed instruction. (Count)
system.cpu.commitStats0.committedInstType::VectorIntegerReduce            0      0.00%    100.00% # Class of committed instruction. (Count)
system.cpu.commitStats0.committedInstType::VectorFloatReduce            0      0.00%    100.00% # Class of committed instruction. (Count)
system.cpu.commitStats0.committedInstType::VectorMisc            0      0.00%    100.00% # Class of committed instruction. (Count)
system.cpu.commitStats0.committedInstType::VectorIntegerExtension            0      0.00%    100.00% # Class of committed instruction. (Count)
system.cpu.commitStats0.committedInstType::VectorConfig            0      0.00%    100.00% # Class of committed instruction. (Count)
system.cpu.commitStats0.committedInstType::total    897023529                       # Class of committed instruction. (Count)
system.cpu.commitStats0.committedControl::IsControl     66001887                       # Class of control type instructions committed (Count)
system.cpu.commitStats0.committedControl::IsDirectControl     40010166                       # Class of control type instructions committed (Count)
system.cpu.commitStats0.committedControl::IsIndirectControl     25991514                       # Class of control type instructions committed (Count)
system.cpu.commitStats0.committedControl::IsCondControl     13665657                       # Class of control type instructions committed (Count)
system.cpu.commitStats0.committedControl::IsUncondControl     52336023                       # Class of control type instructions committed (Count)
system.cpu.commitStats0.committedControl::IsCall     25441116                       # Class of control type instructions committed (Count)
system.cpu.commitStats0.committedControl::IsReturn     25441111                       # Class of control type instructions committed (Count)
system.cpu.exec_context.thread_0.numMatAluAccesses            0                       # Number of matrix alu accesses (Count)
system.cpu.exec_context.thread_0.numCallsReturns     50882227                       # Number of times a function call or return occured (Count)
system.cpu.exec_context.thread_0.numMatInsts            0                       # Number of matrix instructions (Count)
system.cpu.exec_context.thread_0.numIdleCycles     0.001000                       # Number of idle cycles (Cycle)
system.cpu.exec_context.thread_0.numBusyCycles 59261119214.999001                       # Number of busy cycles (Cycle)
system.cpu.exec_context.thread_0.notIdleFraction     1.000000                       # Percentage of non-idle cycles (Ratio)
system.cpu.exec_context.thread_0.idleFraction     0.000000                       # Percentage of idle cycles (Ratio)
system.cpu.executeStats0.numInsts                   0                       # Number of executed instructions (Count)
system.cpu.executeStats0.numNop                     0                       # Number of nop insts executed (Count)
system.cpu.executeStats0.numBranches                0                       # Number of branches executed (Count)
system.cpu.executeStats0.numLoadInsts               0                       # Number of load instructions executed (Count)
system.cpu.executeStats0.numStoreInsts      332504640                       # Number of stores executed (Count)
system.cpu.executeStats0.instRate                   0                       # Inst execution rate ((Count/Cycle))
system.cpu.executeStats0.numFpAluAccesses       589519                       # Number of float alu accesses (Count)
system.cpu.executeStats0.numFpRegReads         875211                       # Number of times the floating registers were read (Count)
system.cpu.executeStats0.numFpRegWrites        464160                       # Number of times the floating registers were written (Count)
system.cpu.executeStats0.numIntAluAccesses    870643065                       # Number of integer alu accesses (Count)
system.cpu.executeStats0.numIntRegReads    1344160328                       # Number of times the integer registers were read (Count)
system.cpu.executeStats0.numIntRegWrites    665608885                       # Number of times the integer registers were written (Count)
system.cpu.executeStats0.numMemRefs         332504640                       # Number of memory refs (Count)
system.cpu.executeStats0.numMiscRegReads    439344776                       # Number of times the Misc registers were read (Count)
system.cpu.executeStats0.numMiscRegWrites          720                       # Number of times the Misc registers were written (Count)
system.cpu.executeStats0.numVecAluAccesses            0                       # Number of vector alu accesses (Count)
system.cpu.executeStats0.numDiscardedOps            0                       # Number of ops (including micro ops) which were discarded before commit (Count)
system.cpu.fetchStats0.numInsts             581993707                       # Number of instructions fetched (thread level) (Count)
system.cpu.fetchStats0.numOps               897023529                       # Number of ops (including micro ops) fetched (thread level) (Count)
system.cpu.fetchStats0.fetchRate             0.009821                       # Number of inst fetches per cycle ((Count/Cycle))
system.cpu.fetchStats0.numBranches           66001887                       # Number of branches fetched (Count)
system.cpu.fetchStats0.branchRate            0.001114                       # Number of branch fetches per cycle (Ratio)
system.cpu.fetchStats0.numFetchSuspends             0                       # Number of times Execute suspended instruction fetching (Count)
system.cpu.interrupts.clk_domain.clock          16000                       # Clock period in ticks (Tick)
system.cpu.mmu.dtb.rdAccesses               212374110                       # TLB accesses on read requests (Count)
system.cpu.mmu.dtb.wrAccesses               120133381                       # TLB accesses on write requests (Count)
system.cpu.mmu.dtb.rdMisses                      1904                       # TLB misses on read requests (Count)
system.cpu.mmu.dtb.wrMisses                       292                       # TLB misses on write requests (Count)
system.cpu.mmu.dtb.walker.power_state.pwrStateResidencyTicks::UNDEFINED 59261119215000                       # Cumulative time (in ticks) in various power states (Tick)
system.cpu.mmu.itb.rdAccesses                       0                       # TLB accesses on read requests (Count)
system.cpu.mmu.itb.wrAccesses               756656852                       # TLB accesses on write requests (Count)
system.cpu.mmu.itb.rdMisses                         0                       # TLB misses on read requests (Count)
system.cpu.mmu.itb.wrMisses                       447                       # TLB misses on write requests (Count)
system.cpu.mmu.itb.walker.power_state.pwrStateResidencyTicks::UNDEFINED 59261119215000                       # Cumulative time (in ticks) in various power states (Tick)
system.cpu.power_state.pwrStateResidencyTicks::ON 59261119215000                       # Cumulative time (in ticks) in various power states (Tick)
system.cpu.thread_0.numInsts                        0                       # Number of Instructions committed (Count)
system.cpu.thread_0.numOps                          0                       # Number of Ops committed (Count)
system.cpu.thread_0.numMemRefs                      0                       # Number of Memory References (Count)
system.cpu.workload.numSyscalls                   223                       # Number of system calls (Count)
system.mem_ctrl.avgPriority_cpu.inst::samples 756656729.00                       # Average QoS priority value for accepted requests (Count)
system.mem_ctrl.avgPriority_cpu.data::samples 172346323.00                       # Average QoS priority value for accepted requests (Count)
system.mem_ctrl.priorityMinLatency       0.000000018750                       # per QoS priority minimum request to response latency (Second)
system.mem_ctrl.priorityMaxLatency       60.277134539250                       # per QoS priority maximum request to response latency (Second)
system.mem_ctrl.numReadWriteTurnArounds          2563                       # Number of turnarounds from READ to WRITE (Count)
system.mem_ctrl.numWriteReadTurnArounds          2563                       # Number of turnarounds from WRITE to READ (Count)
system.mem_ctrl.numStayReadState           1993276150                       # Number of times bus staying in READ state (Count)
system.mem_ctrl.numStayWriteState               38534                       # Number of times bus staying in WRITE state (Count)
system.mem_ctrl.readReqs                    969030607                       # Number of read requests accepted (Count)
system.mem_ctrl.writeReqs                   120133269                       # Number of write requests accepted (Count)
system.mem_ctrl.readBursts                  969030607                       # Number of controller read bursts, including those serviced by the write queue (Count)
system.mem_ctrl.writeBursts                 120133269                       # Number of controller write bursts, including those merged in the write queue (Count)
system.mem_ctrl.servicedByWrQ                40068643                       # Number of controller read bursts serviced by the write queue (Count)
system.mem_ctrl.mergedWrBursts              120092181                       # Number of controller write bursts merged with an existing one (Count)
system.mem_ctrl.neitherReadNorWriteReqs             0                       # Number of requests that are neither read nor write (Count)
system.mem_ctrl.avgRdQLen                        1.00                       # Average read queue length when enqueuing ((Count/Tick))
system.mem_ctrl.avgWrQLen                       28.55                       # Average write queue length when enqueuing ((Count/Tick))
system.mem_ctrl.numRdRetry                          0                       # Number of times read queue was full causing retry (Count)
system.mem_ctrl.numWrRetry                          0                       # Number of times write queue was full causing retry (Count)
system.mem_ctrl.readPktSize::0                 687770                       # Read request sizes (log2) (Count)
system.mem_ctrl.readPktSize::1                  14515                       # Read request sizes (log2) (Count)
system.mem_ctrl.readPktSize::2               71583891                       # Read request sizes (log2) (Count)
system.mem_ctrl.readPktSize::3              896744431                       # Read request sizes (log2) (Count)
system.mem_ctrl.readPktSize::4                      0                       # Read request sizes (log2) (Count)
system.mem_ctrl.readPktSize::5                      0                       # Read request sizes (log2) (Count)
system.mem_ctrl.readPktSize::6                      0                       # Read request sizes (log2) (Count)
system.mem_ctrl.writePktSize::0                343676                       # Write request sizes (log2) (Count)
system.mem_ctrl.writePktSize::1                  3272                       # Write request sizes (log2) (Count)
system.mem_ctrl.writePktSize::2              16553427                       # Write request sizes (log2) (Count)
system.mem_ctrl.writePktSize::3             103232894                       # Write request sizes (log2) (Count)
system.mem_ctrl.writePktSize::4                     0                       # Write request sizes (log2) (Count)
system.mem_ctrl.writePktSize::5                     0                       # Write request sizes (log2) (Count)
system.mem_ctrl.writePktSize::6                     0                       # Write request sizes (log2) (Count)
system.mem_ctrl.rdQLenPdf::0                928961931                       # What read queue length does an incoming req see (Count)
system.mem_ctrl.rdQLenPdf::1                       33                       # What read queue length does an incoming req see (Count)
system.mem_ctrl.rdQLenPdf::2                        0                       # What read queue length does an incoming req see (Count)
system.mem_ctrl.rdQLenPdf::3                        0                       # What read queue length does an incoming req see (Count)
system.mem_ctrl.rdQLenPdf::4                        0                       # What read queue length does an incoming req see (Count)
system.mem_ctrl.rdQLenPdf::5                        0                       # What read queue length does an incoming req see (Count)
system.mem_ctrl.rdQLenPdf::6                        0                       # What read queue length does an incoming req see (Count)
system.mem_ctrl.rdQLenPdf::7                        0                       # What read queue length does an incoming req see (Count)
system.mem_ctrl.rdQLenPdf::8                        0                       # What read queue length does an incoming req see (Count)
system.mem_ctrl.rdQLenPdf::9                        0                       # What read queue length does an incoming req see (Count)
system.mem_ctrl.rdQLenPdf::10                       0                       # What read queue length does an incoming req see (Count)
system.mem_ctrl.rdQLenPdf::11                       0                       # What read queue length does an incoming req see (Count)
system.mem_ctrl.rdQLenPdf::12                       0                       # What read queue length does an incoming req see (Count)
system.mem_ctrl.rdQLenPdf::13                       0                       # What read queue length does an incoming req see (Count)
system.mem_ctrl.rdQLenPdf::14                       0                       # What read queue length does an incoming req see (Count)
system.mem_ctrl.rdQLenPdf::15                       0                       # What read queue length does an incoming req see (Count)
system.mem_ctrl.rdQLenPdf::16                       0                       # What read queue length does an incoming req see (Count)
system.mem_ctrl.rdQLenPdf::17                       0                       # What read queue length does an incoming req see (Count)
system.mem_ctrl.rdQLenPdf::18                       0                       # What read queue length does an incoming req see (Count)
system.mem_ctrl.rdQLenPdf::19                       0                       # What read queue length does an incoming req see (Count)
system.mem_ctrl.rdQLenPdf::20                       0                       # What read queue length does an incoming req see (Count)
system.mem_ctrl.rdQLenPdf::21                       0                       # What read queue length does an incoming req see (Count)
system.mem_ctrl.rdQLenPdf::22                       0                       # What read queue length does an incoming req see (Count)
system.mem_ctrl.rdQLenPdf::23                       0                       # What read queue length does an incoming req see (Count)
system.mem_ctrl.rdQLenPdf::24                       0                       # What read queue length does an incoming req see (Count)
system.mem_ctrl.rdQLenPdf::25                       0                       # What read queue length does an incoming req see (Count)
system.mem_ctrl.rdQLenPdf::26                       0                       # What read queue length does an incoming req see (Count)
system.mem_ctrl.rdQLenPdf::27                       0                       # What read queue length does an incoming req see (Count)
system.mem_ctrl.rdQLenPdf::28                       0                       # What read queue length does an incoming req see (Count)
system.mem_ctrl.rdQLenPdf::29                       0                       # What read queue length does an incoming req see (Count)
system.mem_ctrl.rdQLenPdf::30                       0                       # What read queue length does an incoming req see (Count)
system.mem_ctrl.rdQLenPdf::31                       0                       # What read queue length does an incoming req see (Count)
system.mem_ctrl.wrQLenPdf::0                        1                       # What write queue length does an incoming req see (Count)
system.mem_ctrl.wrQLenPdf::1                        1                       # What write queue length does an incoming req see (Count)
system.mem_ctrl.wrQLenPdf::2                        1                       # What write queue length does an incoming req see (Count)
system.mem_ctrl.wrQLenPdf::3                        1                       # What write queue length does an incoming req see (Count)
system.mem_ctrl.wrQLenPdf::4                        1                       # What write queue length does an incoming req see (Count)
system.mem_ctrl.wrQLenPdf::5                        1                       # What write queue length does an incoming req see (Count)
system.mem_ctrl.wrQLenPdf::6                        1                       # What write queue length does an incoming req see (Count)
system.mem_ctrl.wrQLenPdf::7                        1                       # What write queue length does an incoming req see (Count)
system.mem_ctrl.wrQLenPdf::8                        1                       # What write queue length does an incoming req see (Count)
system.mem_ctrl.wrQLenPdf::9                        1                       # What write queue length does an incoming req see (Count)
system.mem_ctrl.wrQLenPdf::10                       1                       # What write queue length does an incoming req see (Count)
system.mem_ctrl.wrQLenPdf::11                       1                       # What write queue length does an incoming req see (Count)
system.mem_ctrl.wrQLenPdf::12                       1                       # What write queue length does an incoming req see (Count)
system.mem_ctrl.wrQLenPdf::13                       1                       # What write queue length does an incoming req see (Count)
system.mem_ctrl.wrQLenPdf::14                       1                       # What write queue length does an incoming req see (Count)
system.mem_ctrl.wrQLenPdf::15                      25                       # What write queue length does an incoming req see (Count)
system.mem_ctrl.wrQLenPdf::16                      25                       # What write queue length does an incoming req see (Count)
system.mem_ctrl.wrQLenPdf::17                    2562                       # What write queue length does an incoming req see (Count)
system.mem_ctrl.wrQLenPdf::18                    2566                       # What write queue length does an incoming req see (Count)
system.mem_ctrl.wrQLenPdf::19                    2565                       # What write queue length does an incoming req see (Count)
system.mem_ctrl.wrQLenPdf::20                    2564                       # What write queue length does an incoming req see (Count)
system.mem_ctrl.wrQLenPdf::21                    2565                       # What write queue length does an incoming req see (Count)
system.mem_ctrl.wrQLenPdf::22                    2564                       # What write queue length does an incoming req see (Count)
system.mem_ctrl.wrQLenPdf::23                    2566                       # What write queue length does an incoming req see (Count)
system.mem_ctrl.wrQLenPdf::24                    2564                       # What write queue length does an incoming req see (Count)
system.mem_ctrl.wrQLenPdf::25                    2564                       # What write queue length does an incoming req see (Count)
system.mem_ctrl.wrQLenPdf::26                    2564                       # What write queue length does an incoming req see (Count)
system.mem_ctrl.wrQLenPdf::27                    2564                       # What write queue length does an incoming req see (Count)
system.mem_ctrl.wrQLenPdf::28                    2563                       # What write queue length does an incoming req see (Count)
system.mem_ctrl.wrQLenPdf::29                    2563                       # What write queue length does an incoming req see (Count)
system.mem_ctrl.wrQLenPdf::30                    2563                       # What write queue length does an incoming req see (Count)
system.mem_ctrl.wrQLenPdf::31                    2563                       # What write queue length does an incoming req see (Count)
system.mem_ctrl.wrQLenPdf::32                    2563                       # What write queue length does an incoming req see (Count)
system.mem_ctrl.wrQLenPdf::33                       0                       # What write queue length does an incoming req see (Count)
system.mem_ctrl.wrQLenPdf::34                       0                       # What write queue length does an incoming req see (Count)
system.mem_ctrl.wrQLenPdf::35                       0                       # What write queue length does an incoming req see (Count)
system.mem_ctrl.wrQLenPdf::36                       0                       # What write queue length does an incoming req see (Count)
system.mem_ctrl.wrQLenPdf::37                       0                       # What write queue length does an incoming req see (Count)
system.mem_ctrl.wrQLenPdf::38                       0                       # What write queue length does an incoming req see (Count)
system.mem_ctrl.wrQLenPdf::39                       0                       # What write queue length does an incoming req see (Count)
system.mem_ctrl.wrQLenPdf::40                       0                       # What write queue length does an incoming req see (Count)
system.mem_ctrl.wrQLenPdf::41                       0                       # What write queue length does an incoming req see (Count)
system.mem_ctrl.wrQLenPdf::42                       0                       # What write queue length does an incoming req see (Count)
system.mem_ctrl.wrQLenPdf::43                       0                       # What write queue length does an incoming req see (Count)
system.mem_ctrl.wrQLenPdf::44                       0                       # What write queue length does an incoming req see (Count)
system.mem_ctrl.wrQLenPdf::45                       0                       # What write queue length does an incoming req see (Count)
system.mem_ctrl.wrQLenPdf::46                       0                       # What write queue length does an incoming req see (Count)
system.mem_ctrl.wrQLenPdf::47                       0                       # What write queue length does an incoming req see (Count)
system.mem_ctrl.wrQLenPdf::48                       0                       # What write queue length does an incoming req see (Count)
system.mem_ctrl.wrQLenPdf::49                       0                       # What write queue length does an incoming req see (Count)
system.mem_ctrl.wrQLenPdf::50                       0                       # What write queue length does an incoming req see (Count)
system.mem_ctrl.wrQLenPdf::51                       0                       # What write queue length does an incoming req see (Count)
system.mem_ctrl.wrQLenPdf::52                       0                       # What write queue length does an incoming req see (Count)
system.mem_ctrl.wrQLenPdf::53                       0                       # What write queue length does an incoming req see (Count)
system.mem_ctrl.wrQLenPdf::54                       0                       # What write queue length does an incoming req see (Count)
system.mem_ctrl.wrQLenPdf::55                       0                       # What write queue length does an incoming req see (Count)
system.mem_ctrl.wrQLenPdf::56                       0                       # What write queue length does an incoming req see (Count)
system.mem_ctrl.wrQLenPdf::57                       0                       # What write queue length does an incoming req see (Count)
system.mem_ctrl.wrQLenPdf::58                       0                       # What write queue length does an incoming req see (Count)
system.mem_ctrl.wrQLenPdf::59                       0                       # What write queue length does an incoming req see (Count)
system.mem_ctrl.wrQLenPdf::60                       0                       # What write queue length does an incoming req see (Count)
system.mem_ctrl.wrQLenPdf::61                       0                       # What write queue length does an incoming req see (Count)
system.mem_ctrl.wrQLenPdf::62                       0                       # What write queue length does an incoming req see (Count)
system.mem_ctrl.wrQLenPdf::63                       0                       # What write queue length does an incoming req see (Count)
system.mem_ctrl.rdPerTurnAround::samples         2563                       # Reads before turning the bus around for writes (Count)
system.mem_ctrl.rdPerTurnAround::mean    362450.785018                       # Reads before turning the bus around for writes (Count)
system.mem_ctrl.rdPerTurnAround::stdev   1200970.750418                       # Reads before turning the bus around for writes (Count)
system.mem_ctrl.rdPerTurnAround::0-262143         2350     91.69%     91.69% # Reads before turning the bus around for writes (Count)
system.mem_ctrl.rdPerTurnAround::262144-524287           17      0.66%     92.35% # Reads before turning the bus around for writes (Count)
system.mem_ctrl.rdPerTurnAround::2.62144e+06-2.88358e+06           10      0.39%     92.74% # Reads before turning the bus around for writes (Count)
system.mem_ctrl.rdPerTurnAround::3.40787e+06-3.67002e+06            1      0.04%     92.78% # Reads before turning the bus around for writes (Count)
system.mem_ctrl.rdPerTurnAround::3.67002e+06-3.93216e+06            8      0.31%     93.09% # Reads before turning the bus around for writes (Count)
system.mem_ctrl.rdPerTurnAround::3.93216e+06-4.1943e+06          111      4.33%     97.42% # Reads before turning the bus around for writes (Count)
system.mem_ctrl.rdPerTurnAround::4.1943e+06-4.45645e+06           48      1.87%     99.30% # Reads before turning the bus around for writes (Count)
system.mem_ctrl.rdPerTurnAround::5.50502e+06-5.76717e+06            1      0.04%     99.34% # Reads before turning the bus around for writes (Count)
system.mem_ctrl.rdPerTurnAround::6.02931e+06-6.29146e+06            1      0.04%     99.38% # Reads before turning the bus around for writes (Count)
system.mem_ctrl.rdPerTurnAround::6.29146e+06-6.5536e+06            1      0.04%     99.41% # Reads before turning the bus around for writes (Count)
system.mem_ctrl.rdPerTurnAround::6.5536e+06-6.81574e+06            2      0.08%     99.49% # Reads before turning the bus around for writes (Count)
system.mem_ctrl.rdPerTurnAround::6.81574e+06-7.07789e+06            1      0.04%     99.53% # Reads before turning the bus around for writes (Count)
system.mem_ctrl.rdPerTurnAround::7.86432e+06-8.12646e+06            5      0.20%     99.73% # Reads before turning the bus around for writes (Count)
system.mem_ctrl.rdPerTurnAround::8.12646e+06-8.38861e+06            7      0.27%    100.00% # Reads before turning the bus around for writes (Count)
system.mem_ctrl.rdPerTurnAround::total           2563                       # Reads before turning the bus around for writes (Count)
system.mem_ctrl.wrPerTurnAround::samples         2563                       # Writes before turning the bus around for reads (Count)
system.mem_ctrl.wrPerTurnAround::mean       16.020289                       # Writes before turning the bus around for reads (Count)
system.mem_ctrl.wrPerTurnAround::gmean      16.018991                       # Writes before turning the bus around for reads (Count)
system.mem_ctrl.wrPerTurnAround::stdev       0.213649                       # Writes before turning the bus around for reads (Count)
system.mem_ctrl.wrPerTurnAround::16              2539     99.06%     99.06% # Writes before turning the bus around for reads (Count)
system.mem_ctrl.wrPerTurnAround::18                21      0.82%     99.88% # Writes before turning the bus around for reads (Count)
system.mem_ctrl.wrPerTurnAround::19                 2      0.08%     99.96% # Writes before turning the bus around for reads (Count)
system.mem_ctrl.wrPerTurnAround::20                 1      0.04%    100.00% # Writes before turning the bus around for reads (Count)
system.mem_ctrl.wrPerTurnAround::total           2563                       # Writes before turning the bus around for reads (Count)
system.mem_ctrl.bytesReadWrQ               2564393152                       # Total number of bytes read from write queue (Byte)
system.mem_ctrl.bytesReadSys               7461007759                       # Total read bytes from the system interface side (Byte)
system.mem_ctrl.bytesWrittenSys             892425164                       # Total written bytes from the system interface side (Byte)
system.mem_ctrl.avgRdBWSys               125900554.32350814                       # Average system read bandwidth in Byte/s ((Byte/Second))
system.mem_ctrl.avgWrBWSys               15059201.98304510                       # Average system write bandwidth in Byte/s ((Byte/Second))
system.mem_ctrl.totGap                   59261119089000                       # Total gap between requests (Tick)
system.mem_ctrl.avgGap                       54409.74                       # Average gap between requests ((Tick/Count))
system.mem_ctrl.requestorReadBytes::cpu.inst   6053253832                       # Per-requestor bytes read from memory (Byte)
system.mem_ctrl.requestorReadBytes::cpu.data   1140550977                       # Per-requestor bytes read from memory (Byte)
system.mem_ctrl.requestorWriteBytes::cpu.data       282159                       # Per-requestor bytes write to memory (Byte)
system.mem_ctrl.requestorReadRate::cpu.inst 102145452.400902643800                       # Per-requestor bytes read from memory rate ((Byte/Second))
system.mem_ctrl.requestorReadRate::cpu.data 19246193.661345954984                       # Per-requestor bytes read from memory rate ((Byte/Second))
system.mem_ctrl.requestorWriteRate::cpu.data 4761.283683764460                       # Per-requestor bytes write to memory rate ((Byte/Second))
system.mem_ctrl.requestorReadAccesses::cpu.inst    756656729                       # Per-requestor read serviced memory accesses (Count)
system.mem_ctrl.requestorReadAccesses::cpu.data    212373878                       # Per-requestor read serviced memory accesses (Count)
system.mem_ctrl.requestorWriteAccesses::cpu.data    120133269                       # Per-requestor write serviced memory accesses (Count)
system.mem_ctrl.requestorReadTotalLat::cpu.inst 19854017638250                       # Per-requestor read total memory access latency (Tick)
system.mem_ctrl.requestorReadTotalLat::cpu.data 7831177446000                       # Per-requestor read total memory access latency (Tick)
system.mem_ctrl.requestorWriteTotalLat::cpu.data 1689948630833750                       # Per-requestor write total memory access latency (Tick)
system.mem_ctrl.requestorReadAvgLat::cpu.inst     26239.13                       # Per-requestor read average memory access latency ((Tick/Count))
system.mem_ctrl.requestorReadAvgLat::cpu.data     36874.49                       # Per-requestor read average memory access latency ((Tick/Count))
system.mem_ctrl.requestorWriteAvgLat::cpu.data  14067282.48                       # Per-requestor write average memory access latency ((Tick/Count))
system.mem_ctrl.dram.bytesRead::cpu.inst   6053253832                       # Number of bytes read from this memory (Byte)
system.mem_ctrl.dram.bytesRead::cpu.data   1407753927                       # Number of bytes read from this memory (Byte)
system.mem_ctrl.dram.bytesRead::total      7461007759                       # Number of bytes read from this memory (Byte)
system.mem_ctrl.dram.bytesInstRead::cpu.inst   6053253832                       # Number of instructions bytes read from this memory (Byte)
system.mem_ctrl.dram.bytesInstRead::total   6053253832                       # Number of instructions bytes read from this memory (Byte)
system.mem_ctrl.dram.bytesWritten::cpu.data    892425164                       # Number of bytes written to this memory (Byte)
system.mem_ctrl.dram.bytesWritten::total    892425164                       # Number of bytes written to this memory (Byte)
system.mem_ctrl.dram.numReads::cpu.inst     756656729                       # Number of read requests responded to by this memory (Count)
system.mem_ctrl.dram.numReads::cpu.data     212373878                       # Number of read requests responded to by this memory (Count)
system.mem_ctrl.dram.numReads::total        969030607                       # Number of read requests responded to by this memory (Count)
system.mem_ctrl.dram.numWrites::cpu.data    120133269                       # Number of write requests responded to by this memory (Count)
system.mem_ctrl.dram.numWrites::total       120133269                       # Number of write requests responded to by this memory (Count)
system.mem_ctrl.dram.bwRead::cpu.inst       102145452                       # Total read bandwidth from this memory ((Byte/Second))
system.mem_ctrl.dram.bwRead::cpu.data        23755102                       # Total read bandwidth from this memory ((Byte/Second))
system.mem_ctrl.dram.bwRead::total          125900554                       # Total read bandwidth from this memory ((Byte/Second))
system.mem_ctrl.dram.bwInstRead::cpu.inst    102145452                       # Instruction read bandwidth from this memory ((Byte/Second))
system.mem_ctrl.dram.bwInstRead::total      102145452                       # Instruction read bandwidth from this memory ((Byte/Second))
system.mem_ctrl.dram.bwWrite::cpu.data       15059202                       # Write bandwidth from this memory ((Byte/Second))
system.mem_ctrl.dram.bwWrite::total          15059202                       # Write bandwidth from this memory ((Byte/Second))
system.mem_ctrl.dram.bwTotal::cpu.inst      102145452                       # Total bandwidth to/from this memory ((Byte/Second))
system.mem_ctrl.dram.bwTotal::cpu.data       38814304                       # Total bandwidth to/from this memory ((Byte/Second))
system.mem_ctrl.dram.bwTotal::total         140959756                       # Total bandwidth to/from this memory ((Byte/Second))
system.mem_ctrl.dram.readBursts             928961964                       # Number of DRAM read bursts (Count)
system.mem_ctrl.dram.writeBursts                41060                       # Number of DRAM write bursts (Count)
system.mem_ctrl.dram.perBankRdBursts::0      10398703                       # Per bank write bursts (Count)
system.mem_ctrl.dram.perBankRdBursts::1     859325438                       # Per bank write bursts (Count)
system.mem_ctrl.dram.perBankRdBursts::2      15534926                       # Per bank write bursts (Count)
system.mem_ctrl.dram.perBankRdBursts::3       2987858                       # Per bank write bursts (Count)
system.mem_ctrl.dram.perBankRdBursts::4       1514206                       # Per bank write bursts (Count)
system.mem_ctrl.dram.perBankRdBursts::5       8519712                       # Per bank write bursts (Count)
system.mem_ctrl.dram.perBankRdBursts::6       1714284                       # Per bank write bursts (Count)
system.mem_ctrl.dram.perBankRdBursts::7        871479                       # Per bank write bursts (Count)
system.mem_ctrl.dram.perBankRdBursts::8       1292569                       # Per bank write bursts (Count)
system.mem_ctrl.dram.perBankRdBursts::9       1126917                       # Per bank write bursts (Count)
system.mem_ctrl.dram.perBankRdBursts::10      1365028                       # Per bank write bursts (Count)
system.mem_ctrl.dram.perBankRdBursts::11      2063747                       # Per bank write bursts (Count)
system.mem_ctrl.dram.perBankRdBursts::12       823763                       # Per bank write bursts (Count)
system.mem_ctrl.dram.perBankRdBursts::13      5388579                       # Per bank write bursts (Count)
system.mem_ctrl.dram.perBankRdBursts::14     10686751                       # Per bank write bursts (Count)
system.mem_ctrl.dram.perBankRdBursts::15      5348004                       # Per bank write bursts (Count)
system.mem_ctrl.dram.perBankWrBursts::0          1297                       # Per bank write bursts (Count)
system.mem_ctrl.dram.perBankWrBursts::1         13483                       # Per bank write bursts (Count)
system.mem_ctrl.dram.perBankWrBursts::2          3737                       # Per bank write bursts (Count)
system.mem_ctrl.dram.perBankWrBursts::3          1521                       # Per bank write bursts (Count)
system.mem_ctrl.dram.perBankWrBursts::4          1970                       # Per bank write bursts (Count)
system.mem_ctrl.dram.perBankWrBursts::5          1450                       # Per bank write bursts (Count)
system.mem_ctrl.dram.perBankWrBursts::6           953                       # Per bank write bursts (Count)
system.mem_ctrl.dram.perBankWrBursts::7           747                       # Per bank write bursts (Count)
system.mem_ctrl.dram.perBankWrBursts::8           885                       # Per bank write bursts (Count)
system.mem_ctrl.dram.perBankWrBursts::9          1355                       # Per bank write bursts (Count)
system.mem_ctrl.dram.perBankWrBursts::10         1238                       # Per bank write bursts (Count)
system.mem_ctrl.dram.perBankWrBursts::11         1412                       # Per bank write bursts (Count)
system.mem_ctrl.dram.perBankWrBursts::12         1013                       # Per bank write bursts (Count)
system.mem_ctrl.dram.perBankWrBursts::13         1442                       # Per bank write bursts (Count)
system.mem_ctrl.dram.perBankWrBursts::14         7565                       # Per bank write bursts (Count)
system.mem_ctrl.dram.perBankWrBursts::15          992                       # Per bank write bursts (Count)
system.mem_ctrl.dram.totQLat             10267158259250                       # Total ticks spent queuing (Tick)
system.mem_ctrl.dram.totBusLat           4644809820000                       # Total ticks spent in databus transfers (Tick)
system.mem_ctrl.dram.totMemAccLat        27685195084250                       # Total ticks spent from burst creation until serviced by the DRAM (Tick)
system.mem_ctrl.dram.avgQLat                 11052.29                       # Average queueing delay per DRAM burst ((Tick/Count))
system.mem_ctrl.dram.avgBusLat                5000.00                       # Average bus latency per DRAM burst ((Tick/Count))
system.mem_ctrl.dram.avgMemAccLat            29802.29                       # Average memory access latency per DRAM burst ((Tick/Count))
system.mem_ctrl.dram.readRowHits            605516883                       # Number of row buffer hits during reads (Count)
system.mem_ctrl.dram.writeRowHits               36531                       # Number of row buffer hits during writes (Count)
system.mem_ctrl.dram.readRowHitRate             65.18                       # Row buffer hit rate for reads (Ratio)
system.mem_ctrl.dram.writeRowHitRate            88.97                       # Row buffer hit rate for writes (Ratio)
system.mem_ctrl.dram.bytesPerActivate::samples    323449605                       # Bytes accessed per row activation (Byte)
system.mem_ctrl.dram.bytesPerActivate::mean   183.819028                       # Bytes accessed per row activation (Byte)
system.mem_ctrl.dram.bytesPerActivate::gmean   114.765408                       # Bytes accessed per row activation (Byte)
system.mem_ctrl.dram.bytesPerActivate::stdev   230.168489                       # Bytes accessed per row activation (Byte)
system.mem_ctrl.dram.bytesPerActivate::0-127    202153003     62.50%     62.50% # Bytes accessed per row activation (Byte)
system.mem_ctrl.dram.bytesPerActivate::128-255     46261548     14.30%     76.80% # Bytes accessed per row activation (Byte)
system.mem_ctrl.dram.bytesPerActivate::256-383     32188099      9.95%     86.75% # Bytes accessed per row activation (Byte)
system.mem_ctrl.dram.bytesPerActivate::384-511      6471249      2.00%     88.75% # Bytes accessed per row activation (Byte)
system.mem_ctrl.dram.bytesPerActivate::512-639      9866097      3.05%     91.80% # Bytes accessed per row activation (Byte)
system.mem_ctrl.dram.bytesPerActivate::640-767      5229875      1.62%     93.42% # Bytes accessed per row activation (Byte)
system.mem_ctrl.dram.bytesPerActivate::768-895     11250955      3.48%     96.90% # Bytes accessed per row activation (Byte)
system.mem_ctrl.dram.bytesPerActivate::896-1023       806824      0.25%     97.15% # Bytes accessed per row activation (Byte)
system.mem_ctrl.dram.bytesPerActivate::1024-1151      9221955      2.85%    100.00% # Bytes accessed per row activation (Byte)
system.mem_ctrl.dram.bytesPerActivate::total    323449605                       # Bytes accessed per row activation (Byte)
system.mem_ctrl.dram.bytesRead            59453565696                       # Total bytes read (Byte)
system.mem_ctrl.dram.bytesWritten             2627840                       # Total bytes written (Byte)
system.mem_ctrl.dram.avgRdBW              1003.247432                       # Average DRAM read bandwidth in MiBytes/s ((Byte/Second))
system.mem_ctrl.dram.avgWrBW                 0.044343                       # Average DRAM write bandwidth in MiBytes/s ((Byte/Second))
system.mem_ctrl.dram.peakBW                  12800.00                       # Theoretical peak bandwidth in MiByte/s ((Byte/Second))
system.mem_ctrl.dram.busUtil                     7.84                       # Data bus utilization in percentage (Ratio)
system.mem_ctrl.dram.busUtilRead                 7.84                       # Data bus utilization in percentage for reads (Ratio)
system.mem_ctrl.dram.busUtilWrite                0.00                       # Data bus utilization in percentage for writes (Ratio)
system.mem_ctrl.dram.pageHitRate                65.18                       # Row buffer hit rate, read and write combined (Ratio)
system.mem_ctrl.dram.power_state.pwrStateResidencyTicks::UNDEFINED 59261119215000                       # Cumulative time (in ticks) in various power states (Tick)
system.mem_ctrl.dram.rank0.actEnergy     2203513092060                       # Energy for activate commands per rank (pJ) (Joule)
system.mem_ctrl.dram.rank0.preEnergy     1171194972420                       # Energy for precharge commands per rank (pJ) (Joule)
system.mem_ctrl.dram.rank0.readEnergy    6432187566840                       # Energy for read commands per rank (pJ) (Joule)
system.mem_ctrl.dram.rank0.writeEnergy      131324760                       # Energy for write commands per rank (pJ) (Joule)
system.mem_ctrl.dram.rank0.refreshEnergy 4678022581440.000977                       # Energy for refresh commands per rank (pJ) (Joule)
system.mem_ctrl.dram.rank0.actBackEnergy 25678191828360                       # Energy for active background per rank (pJ) (Joule)
system.mem_ctrl.dram.rank0.preBackEnergy 1132529291520                       # Energy for precharge background per rank (pJ) (Joule)
system.mem_ctrl.dram.rank0.actPowerDownEnergy            0                       # Energy for active power-down per rank (pJ) (Joule)
system.mem_ctrl.dram.rank0.prePowerDownEnergy            0                       # Energy for precharge power-down per rank (pJ) (Joule)
system.mem_ctrl.dram.rank0.selfRefreshEnergy            0                       # Energy for self refresh per rank (pJ) (Joule)
system.mem_ctrl.dram.rank0.totalEnergy   41295770657400                       # Total energy per rank (pJ) (Joule)
system.mem_ctrl.dram.rank0.averagePower    696.844258                       # Core power per rank (mW) (Watt)
system.mem_ctrl.dram.rank0.totalIdleTime            0                       # Total Idle time Per DRAM Rank (Tick)
system.mem_ctrl.dram.rank0.pwrStateTime::IDLE 233498558750                       # Time in different power states (Tick)
system.mem_ctrl.dram.rank0.pwrStateTime::REF 1978858960000                       # Time in different power states (Tick)
system.mem_ctrl.dram.rank0.pwrStateTime::SREF            0                       # Time in different power states (Tick)
system.mem_ctrl.dram.rank0.pwrStateTime::PRE_PDN            0                       # Time in different power states (Tick)
system.mem_ctrl.dram.rank0.pwrStateTime::ACT 57048761696250                       # Time in different power states (Tick)
system.mem_ctrl.dram.rank0.pwrStateTime::ACT_PDN            0                       # Time in different power states (Tick)
system.mem_ctrl.dram.rank1.actEnergy     105917123340                       # Energy for activate commands per rank (pJ) (Joule)
system.mem_ctrl.dram.rank1.preEnergy      56296278555                       # Energy for precharge commands per rank (pJ) (Joule)
system.mem_ctrl.dram.rank1.readEnergy    200600856120                       # Energy for read commands per rank (pJ) (Joule)
system.mem_ctrl.dram.rank1.writeEnergy       83008440                       # Energy for write commands per rank (pJ) (Joule)
system.mem_ctrl.dram.rank1.refreshEnergy 4678022581440.000977                       # Energy for refresh commands per rank (pJ) (Joule)
system.mem_ctrl.dram.rank1.actBackEnergy 17043703972230                       # Energy for active background per rank (pJ) (Joule)
system.mem_ctrl.dram.rank1.preBackEnergy 8403676959840                       # Energy for precharge background per rank (pJ) (Joule)
system.mem_ctrl.dram.rank1.actPowerDownEnergy            0                       # Energy for active power-down per rank (pJ) (Joule)
system.mem_ctrl.dram.rank1.prePowerDownEnergy            0                       # Energy for precharge power-down per rank (pJ) (Joule)
system.mem_ctrl.dram.rank1.selfRefreshEnergy            0                       # Energy for self refresh per rank (pJ) (Joule)
system.mem_ctrl.dram.rank1.totalEnergy   30488300779965                       # Total energy per rank (pJ) (Joule)
system.mem_ctrl.dram.rank1.averagePower    514.473928                       # Core power per rank (mW) (Watt)
system.mem_ctrl.dram.rank1.totalIdleTime            0                       # Total Idle time Per DRAM Rank (Tick)
system.mem_ctrl.dram.rank1.pwrStateTime::IDLE 21672911121000                       # Time in different power states (Tick)
system.mem_ctrl.dram.rank1.pwrStateTime::REF 1978858960000                       # Time in different power states (Tick)
system.mem_ctrl.dram.rank1.pwrStateTime::SREF            0                       # Time in different power states (Tick)
system.mem_ctrl.dram.rank1.pwrStateTime::PRE_PDN            0                       # Time in different power states (Tick)
system.mem_ctrl.dram.rank1.pwrStateTime::ACT 35609349134000                       # Time in different power states (Tick)
system.mem_ctrl.dram.rank1.pwrStateTime::ACT_PDN            0                       # Time in different power states (Tick)
system.mem_ctrl.power_state.pwrStateResidencyTicks::UNDEFINED 59261119215000                       # Cumulative time (in ticks) in various power states (Tick)
system.membus.transDist::ReadReq            969030520                       # Transaction distribution (Count)
system.membus.transDist::ReadResp           969030520                       # Transaction distribution (Count)
system.membus.transDist::WriteReq           120133182                       # Transaction distribution (Count)
system.membus.transDist::WriteResp          120133182                       # Transaction distribution (Count)
system.membus.transDist::LockedRMWReadReq           87                       # Transaction distribution (Count)
system.membus.transDist::LockedRMWReadResp           87                       # Transaction distribution (Count)
system.membus.transDist::LockedRMWWriteReq           87                       # Transaction distribution (Count)
system.membus.transDist::LockedRMWWriteResp           87                       # Transaction distribution (Count)
system.membus.pktCount_system.cpu.icache_port::system.mem_ctrl.port   1513313458                       # Packet count per connected requestor and responder (Count)
system.membus.pktCount_system.cpu.icache_port::total   1513313458                       # Packet count per connected requestor and responder (Count)
system.membus.pktCount_system.cpu.dcache_port::system.mem_ctrl.port    665014294                       # Packet count per connected requestor and responder (Count)
system.membus.pktCount_system.cpu.dcache_port::total    665014294                       # Packet count per connected requestor and responder (Count)
system.membus.pktCount::total              2178327752                       # Packet count per connected requestor and responder (Count)
system.membus.pktSize_system.cpu.icache_port::system.mem_ctrl.port   6053253832                       # Cumulative packet size per connected requestor and responder (Byte)
system.membus.pktSize_system.cpu.icache_port::total   6053253832                       # Cumulative packet size per connected requestor and responder (Byte)
system.membus.pktSize_system.cpu.dcache_port::system.mem_ctrl.port   2300179091                       # Cumulative packet size per connected requestor and responder (Byte)
system.membus.pktSize_system.cpu.dcache_port::total   2300179091                       # Cumulative packet size per connected requestor and responder (Byte)
system.membus.pktSize::total               8353432923                       # Cumulative packet size per connected requestor and responder (Byte)
system.membus.snoops                                0                       # Total snoops (Count)
system.membus.snoopTraffic                          0                       # Total snoop traffic (Byte)
system.membus.snoopFanout::samples         1089163876                       # Request fanout histogram (Count)
system.membus.snoopFanout::mean                     0                       # Request fanout histogram (Count)
system.membus.snoopFanout::stdev                    0                       # Request fanout histogram (Count)
system.membus.snoopFanout::underflows               0      0.00%      0.00% # Request fanout histogram (Count)
system.membus.snoopFanout::0               1089163876    100.00%    100.00% # Request fanout histogram (Count)
system.membus.snoopFanout::1                        0      0.00%    100.00% # Request fanout histogram (Count)
system.membus.snoopFanout::overflows                0      0.00%    100.00% # Request fanout histogram (Count)
system.membus.snoopFanout::min_value                0                       # Request fanout histogram (Count)
system.membus.snoopFanout::max_value                0                       # Request fanout histogram (Count)
system.membus.snoopFanout::total           1089163876                       # Request fanout histogram (Count)
system.membus.power_state.pwrStateResidencyTicks::UNDEFINED 59261119215000                       # Cumulative time (in ticks) in various power states (Tick)
system.membus.reqLayer2.occupancy        1209297145000                       # Layer occupancy (ticks) (Tick)
system.membus.reqLayer2.utilization               0.0                       # Layer utilization (Ratio)
system.membus.respLayer0.occupancy       1776481070750                       # Layer occupancy (ticks) (Tick)
system.membus.respLayer0.utilization              0.0                       # Layer utilization (Ratio)
system.membus.respLayer1.occupancy       664662326000                       # Layer occupancy (ticks) (Tick)
system.membus.respLayer1.utilization              0.0                       # Layer utilization (Ratio)
system.membus.snoop_filter.totRequests              0                       # Total number of requests made to the snoop filter. (Count)
system.membus.snoop_filter.hitSingleRequests            0                       # Number of requests hitting in the snoop filter with a single holder of the requested data. (Count)
system.membus.snoop_filter.hitMultiRequests            0                       # Number of requests hitting in the snoop filter with multiple (>1) holders of the requested data. (Count)
system.membus.snoop_filter.totSnoops                0                       # Total number of snoops made to the snoop filter. (Count)
system.membus.snoop_filter.hitSingleSnoops            0                       # Number of snoops hitting in the snoop filter with a single holder of the requested data. (Count)
system.membus.snoop_filter.hitMultiSnoops            0                       # Number of snoops hitting in the snoop filter with multiple (>1) holders of the requested data. (Count)
system.workload.inst.arm                            0                       # number of arm instructions executed (Count)
system.workload.inst.quiesce                        0                       # number of quiesce instructions executed (Count)

---------- End Simulation Statistics   ----------
